/*---------------------------------------------------------------------------*\
  =========                 |
  \\      /  F ield         | OpenFOAM: The Open Source CFD Toolbox
   \\    /   O peration     | Website:  https://openfoam.org
    \\  /    A nd           | Version:  7
     \\/     M anipulation  |
\*---------------------------------------------------------------------------*/
Build  : 7-1ff648926f77
Exec   : interFoam
Date   : Mar 28 2024
Time   : 11:06:36
Host   : "pass1234-VirtualBox"
PID    : 14247
I/O    : uncollated
Case   : /home/pass1234/OpenFOAM/pass1234-7/run/damBreak
nProcs : 1
sigFpe : Enabling floating point exception trapping (FOAM_SIGFPE).
fileModificationChecking : Monitoring run-time modified files using timeStampMaster (fileModificationSkew 10)
allowSystemOperations : Allowing user-supplied system call operations

// * * * * * * * * * * * * * * * * * * * * * * * * * * * * * * * * * * * * * //
Create time

Create mesh for time = 0


PIMPLE: No convergence criteria found


PIMPLE: Operating solver in transient mode with 1 outer corrector
PIMPLE: Operating solver in PISO mode


Reading field p_rgh

Reading field U

Reading/calculating face flux field phi

Reading transportProperties

Selecting incompressible transport model Newtonian
Selecting incompressible transport model Newtonian
Selecting turbulence model type laminar
Selecting laminar stress model Stokes

Reading g

Reading hRef
Calculating field g.h

No MRF models present

No finite volume options present
DICPCG:  Solving for pcorr, Initial residual = 0, Final residual = 0, No Iterations 0
time step continuity errors : sum local = 0, global = 0, cumulative = 0
Courant Number mean: 0 max: 0

Starting time loop

Courant Number mean: 0 max: 0
Interface Courant Number mean: 0 max: 0
deltaT = 0.001
Time = 0.001

smoothSolver:  Solving for alpha.water, Initial residual = 0, Final residual = 0, No Iterations 0
Phase-1 volume fraction = 0.124752  Min(alpha.water) = 0  Max(alpha.water) = 1
MULES: Correcting alpha.water
MULES: Correcting alpha.water
Phase-1 volume fraction = 0.124752  Min(alpha.water) = 0  Max(alpha.water) = 1
DICPCG:  Solving for p_rgh, Initial residual = 1, Final residual = 0.00339223, No Iterations 1
time step continuity errors : sum local = 0.00121713, global = 1.49438e-19, cumulative = 1.49438e-19
DICPCG:  Solving for p_rgh, Initial residual = 0.00164942, Final residual = 6.36204e-05, No Iterations 24
time step continuity errors : sum local = 4.69657e-05, global = -5.69223e-06, cumulative = -5.69223e-06
DICPCG:  Solving for p_rgh, Initial residual = 5.31554e-05, Final residual = 9.15704e-08, No Iterations 83
time step continuity errors : sum local = 8.09403e-08, global = 4.7479e-09, cumulative = -5.68748e-06
ExecutionTime = 0.03 s  ClockTime = 0 s

Courant Number mean: 0.000962886 max: 0.149451
Interface Courant Number mean: 0 max: 0
deltaT = 0.001
Time = 0.002

smoothSolver:  Solving for alpha.water, Initial residual = 9.90644e-05, Final residual = 1.44112e-12, No Iterations 2
Phase-1 volume fraction = 0.124752  Min(alpha.water) = 0  Max(alpha.water) = 1
MULES: Correcting alpha.water
MULES: Correcting alpha.water
Phase-1 volume fraction = 0.124752  Min(alpha.water) = -3.46336e-13  Max(alpha.water) = 1
DICPCG:  Solving for p_rgh, Initial residual = 0.00209303, Final residual = 5.73071e-05, No Iterations 2
time step continuity errors : sum local = 4.367e-05, global = 1.49402e-08, cumulative = -5.67254e-06
DICPCG:  Solving for p_rgh, Initial residual = 0.000104334, Final residual = 5.01641e-06, No Iterations 61
time step continuity errors : sum local = 3.82383e-06, global = 1.27927e-07, cumulative = -5.54461e-06
DICPCG:  Solving for p_rgh, Initial residual = 1.51825e-05, Final residual = 7.79145e-08, No Iterations 74
time step continuity errors : sum local = 5.93861e-08, global = 7.5324e-10, cumulative = -5.54386e-06
ExecutionTime = 0.06 s  ClockTime = 0 s

Courant Number mean: 0.0014762 max: 0.0632684
Interface Courant Number mean: 1.59546e-05 max: 0.0632684
deltaT = 0.001
Time = 0.003

smoothSolver:  Solving for alpha.water, Initial residual = 6.43394e-05, Final residual = 1.88881e-09, No Iterations 1
Phase-1 volume fraction = 0.124752  Min(alpha.water) = 0  Max(alpha.water) = 1
MULES: Correcting alpha.water
MULES: Correcting alpha.water
Phase-1 volume fraction = 0.124752  Min(alpha.water) = -1.2183e-18  Max(alpha.water) = 1
DICPCG:  Solving for p_rgh, Initial residual = 0.0018104, Final residual = 3.99225e-05, No Iterations 2
time step continuity errors : sum local = 2.7527e-05, global = -2.83698e-09, cumulative = -5.5467e-06
DICPCG:  Solving for p_rgh, Initial residual = 4.02906e-05, Final residual = 1.94813e-06, No Iterations 59
time step continuity errors : sum local = 1.34253e-06, global = -6.34052e-08, cumulative = -5.6101e-06
DICPCG:  Solving for p_rgh, Initial residual = 2.13632e-06, Final residual = 9.92819e-08, No Iterations 36
time step continuity errors : sum local = 6.84332e-08, global = -1.42364e-08, cumulative = -5.62434e-06
ExecutionTime = 0.08 s  ClockTime = 0 s

Courant Number mean: 0.00212558 max: 0.0489833
Interface Courant Number mean: 1.16234e-05 max: 0.0412535
deltaT = 0.001
Time = 0.004

smoothSolver:  Solving for alpha.water, Initial residual = 6.88502e-05, Final residual = 1.59881e-09, No Iterations 1
Phase-1 volume fraction = 0.124752  Min(alpha.water) = 0  Max(alpha.water) = 1
MULES: Correcting alpha.water
MULES: Correcting alpha.water
Phase-1 volume fraction = 0.124752  Min(alpha.water) = -2.92277e-18  Max(alpha.water) = 1
DICPCG:  Solving for p_rgh, Initial residual = 0.00206886, Final residual = 3.33448e-05, No Iterations 2
time step continuity errors : sum local = 2.11797e-05, global = -2.92343e-08, cumulative = -5.65357e-06
DICPCG:  Solving for p_rgh, Initial residual = 3.36885e-05, Final residual = 1.54926e-06, No Iterations 22
time step continuity errors : sum local = 9.82962e-07, global = -1.14927e-07, cumulative = -5.7685e-06
DICPCG:  Solving for p_rgh, Initial residual = 1.63815e-06, Final residual = 7.80916e-08, No Iterations 60
time step continuity errors : sum local = 4.95534e-08, global = 2.91545e-09, cumulative = -5.76559e-06
ExecutionTime = 0.1 s  ClockTime = 0 s

Courant Number mean: 0.0027999 max: 0.0478951
Interface Courant Number mean: 2.04062e-05 max: 0.0369674
deltaT = 0.001
Time = 0.005

smoothSolver:  Solving for alpha.water, Initial residual = 8.27203e-05, Final residual = 2.47106e-09, No Iterations 1
Phase-1 volume fraction = 0.124752  Min(alpha.water) = 0  Max(alpha.water) = 1
MULES: Correcting alpha.water
MULES: Correcting alpha.water
Phase-1 volume fraction = 0.124752  Min(alpha.water) = -6.38552e-18  Max(alpha.water) = 1
DICPCG:  Solving for p_rgh, Initial residual = 0.00255699, Final residual = 0.00010921, No Iterations 1
time step continuity errors : sum local = 6.52385e-05, global = 2.0845e-08, cumulative = -5.74474e-06
DICPCG:  Solving for p_rgh, Initial residual = 0.000110142, Final residual = 5.35907e-06, No Iterations 8
time step continuity errors : sum local = 3.19647e-06, global = 1.95749e-08, cumulative = -5.72517e-06
DICPCG:  Solving for p_rgh, Initial residual = 5.47383e-06, Final residual = 7.97934e-08, No Iterations 74
time step continuity errors : sum local = 4.75912e-08, global = 2.11121e-09, cumulative = -5.72305e-06
ExecutionTime = 0.12 s  ClockTime = 0 s

Courant Number mean: 0.00348201 max: 0.0491679
Interface Courant Number mean: 5.6284e-05 max: 0.036239
deltaT = 0.001
Time = 0.006

smoothSolver:  Solving for alpha.water, Initial residual = 9.83873e-05, Final residual = 4.16359e-09, No Iterations 1
Phase-1 volume fraction = 0.124752  Min(alpha.water) = 0  Max(alpha.water) = 1
MULES: Correcting alpha.water
MULES: Correcting alpha.water
Phase-1 volume fraction = 0.124752  Min(alpha.water) = -3.36501e-12  Max(alpha.water) = 1
DICPCG:  Solving for p_rgh, Initial residual = 0.00311897, Final residual = 0.000110293, No Iterations 1
time step continuity errors : sum local = 6.29608e-05, global = 1.77088e-09, cumulative = -5.72128e-06
DICPCG:  Solving for p_rgh, Initial residual = 0.000111143, Final residual = 5.07769e-06, No Iterations 8
time step continuity errors : sum local = 2.89283e-06, global = 9.64625e-10, cumulative = -5.72032e-06
DICPCG:  Solving for p_rgh, Initial residual = 5.22398e-06, Final residual = 9.9309e-08, No Iterations 45
time step continuity errors : sum local = 5.65745e-08, global = -1.63205e-08, cumulative = -5.73664e-06
ExecutionTime = 0.13 s  ClockTime = 0 s

Courant Number mean: 0.00416528 max: 0.0512405
Interface Courant Number mean: 7.71056e-05 max: 0.0392898
deltaT = 0.001
Time = 0.007

smoothSolver:  Solving for alpha.water, Initial residual = 0.000114591, Final residual = 6.64403e-09, No Iterations 1
Phase-1 volume fraction = 0.124752  Min(alpha.water) = 0  Max(alpha.water) = 1
MULES: Correcting alpha.water
MULES: Correcting alpha.water
Phase-1 volume fraction = 0.124752  Min(alpha.water) = -8.821e-12  Max(alpha.water) = 1
DICPCG:  Solving for p_rgh, Initial residual = 0.00369725, Final residual = 0.00011101, No Iterations 1
time step continuity errors : sum local = 6.12141e-05, global = -3.41002e-08, cumulative = -5.77074e-06
DICPCG:  Solving for p_rgh, Initial residual = 0.000111783, Final residual = 5.27725e-06, No Iterations 8
time step continuity errors : sum local = 2.90297e-06, global = -3.32901e-08, cumulative = -5.80403e-06
DICPCG:  Solving for p_rgh, Initial residual = 5.47224e-06, Final residual = 9.13266e-08, No Iterations 65
time step continuity errors : sum local = 5.02352e-08, global = 3.07514e-09, cumulative = -5.80095e-06
ExecutionTime = 0.15 s  ClockTime = 0 s

Courant Number mean: 0.00484881 max: 0.0542213
Interface Courant Number mean: 9.73127e-05 max: 0.0448197
deltaT = 0.001
Time = 0.008

smoothSolver:  Solving for alpha.water, Initial residual = 0.000130974, Final residual = 9.95458e-09, No Iterations 1
Phase-1 volume fraction = 0.124752  Min(alpha.water) = 0  Max(alpha.water) = 1
MULES: Correcting alpha.water
MULES: Correcting alpha.water
Phase-1 volume fraction = 0.124752  Min(alpha.water) = -1.82326e-11  Max(alpha.water) = 1
DICPCG:  Solving for p_rgh, Initial residual = 0.00428902, Final residual = 0.000110722, No Iterations 1
time step continuity errors : sum local = 5.94055e-05, global = 2.3166e-08, cumulative = -5.77779e-06
DICPCG:  Solving for p_rgh, Initial residual = 0.000111429, Final residual = 5.27386e-06, No Iterations 8
time step continuity errors : sum local = 2.82165e-06, global = 2.1619e-08, cumulative = -5.75617e-06
DICPCG:  Solving for p_rgh, Initial residual = 5.52762e-06, Final residual = 9.98995e-08, No Iterations 39
time step continuity errors : sum local = 5.3446e-08, global = -1.89629e-09, cumulative = -5.75807e-06
ExecutionTime = 0.17 s  ClockTime = 0 s

Courant Number mean: 0.0055309 max: 0.0573688
Interface Courant Number mean: 0.000117592 max: 0.0499604
deltaT = 0.001
Time = 0.009

smoothSolver:  Solving for alpha.water, Initial residual = 0.000147416, Final residual = 5.5119e-14, No Iterations 2
Phase-1 volume fraction = 0.124752  Min(alpha.water) = 0  Max(alpha.water) = 1
MULES: Correcting alpha.water
MULES: Correcting alpha.water
Phase-1 volume fraction = 0.124752  Min(alpha.water) = -3.2602e-11  Max(alpha.water) = 1
DICPCG:  Solving for p_rgh, Initial residual = 0.00488995, Final residual = 0.000110119, No Iterations 1
time step continuity errors : sum local = 5.77736e-05, global = -6.23092e-09, cumulative = -5.7643e-06
DICPCG:  Solving for p_rgh, Initial residual = 0.000110794, Final residual = 5.31244e-06, No Iterations 8
time step continuity errors : sum local = 2.77857e-06, global = -5.884e-09, cumulative = -5.77018e-06
DICPCG:  Solving for p_rgh, Initial residual = 5.63145e-06, Final residual = 9.81715e-08, No Iterations 41
time step continuity errors : sum local = 5.13441e-08, global = -1.0795e-08, cumulative = -5.78098e-06
ExecutionTime = 0.19 s  ClockTime = 0 s

Courant Number mean: 0.00621059 max: 0.0605605
Interface Courant Number mean: 0.000139215 max: 0.0547837
deltaT = 0.001
Time = 0.01

smoothSolver:  Solving for alpha.water, Initial residual = 0.000163858, Final residual = 7.50655e-14, No Iterations 2
Phase-1 volume fraction = 0.124752  Min(alpha.water) = 0  Max(alpha.water) = 1
MULES: Correcting alpha.water
MULES: Correcting alpha.water
Phase-1 volume fraction = 0.124752  Min(alpha.water) = -5.35248e-11  Max(alpha.water) = 1
DICPCG:  Solving for p_rgh, Initial residual = 0.00549605, Final residual = 0.000109443, No Iterations 1
time step continuity errors : sum local = 5.6316e-05, global = -1.89484e-08, cumulative = -5.79992e-06
DICPCG:  Solving for p_rgh, Initial residual = 0.000110091, Final residual = 5.3604e-06, No Iterations 8
time step continuity errors : sum local = 2.74884e-06, global = -1.85793e-08, cumulative = -5.8185e-06
DICPCG:  Solving for p_rgh, Initial residual = 5.74786e-06, Final residual = 8.90113e-08, No Iterations 64
time step continuity errors : sum local = 4.56432e-08, global = 2.27391e-09, cumulative = -5.81623e-06
ExecutionTime = 0.21 s  ClockTime = 0 s

Courant Number mean: 0.00688923 max: 0.0655146
Interface Courant Number mean: 0.000160224 max: 0.0593588
deltaT = 0.001
Time = 0.011

smoothSolver:  Solving for alpha.water, Initial residual = 0.000180269, Final residual = 9.84827e-14, No Iterations 2
Phase-1 volume fraction = 0.124752  Min(alpha.water) = 0  Max(alpha.water) = 1
MULES: Correcting alpha.water
MULES: Correcting alpha.water
Phase-1 volume fraction = 0.124752  Min(alpha.water) = -8.2778e-11  Max(alpha.water) = 1
DICPCG:  Solving for p_rgh, Initial residual = 0.00610917, Final residual = 0.000108933, No Iterations 1
time step continuity errors : sum local = 5.5085e-05, global = 1.60758e-08, cumulative = -5.80015e-06
DICPCG:  Solving for p_rgh, Initial residual = 0.000109666, Final residual = 5.42092e-06, No Iterations 8
time step continuity errors : sum local = 2.73089e-06, global = 1.47615e-08, cumulative = -5.78539e-06
DICPCG:  Solving for p_rgh, Initial residual = 5.87778e-06, Final residual = 9.87225e-08, No Iterations 40
time step continuity errors : sum local = 4.9731e-08, global = -9.92249e-09, cumulative = -5.79531e-06
ExecutionTime = 0.23 s  ClockTime = 0 s

Courant Number mean: 0.00756682 max: 0.0704485
Interface Courant Number mean: 0.000182198 max: 0.0637352
deltaT = 0.001
Time = 0.012

smoothSolver:  Solving for alpha.water, Initial residual = 0.000196627, Final residual = 1.25091e-13, No Iterations 2
Phase-1 volume fraction = 0.124752  Min(alpha.water) = 0  Max(alpha.water) = 1
MULES: Correcting alpha.water
MULES: Correcting alpha.water
Phase-1 volume fraction = 0.124752  Min(alpha.water) = -1.21817e-10  Max(alpha.water) = 1
DICPCG:  Solving for p_rgh, Initial residual = 0.00673044, Final residual = 0.000108838, No Iterations 1
time step continuity errors : sum local = 5.41623e-05, global = -2.1284e-08, cumulative = -5.8166e-06
DICPCG:  Solving for p_rgh, Initial residual = 0.000109503, Final residual = 5.00297e-06, No Iterations 9
time step continuity errors : sum local = 2.47951e-06, global = -2.01299e-08, cumulative = -5.83673e-06
DICPCG:  Solving for p_rgh, Initial residual = 5.60291e-06, Final residual = 8.46236e-08, No Iterations 65
time step continuity errors : sum local = 4.19388e-08, global = 2.36579e-09, cumulative = -5.83436e-06
ExecutionTime = 0.25 s  ClockTime = 0 s

Courant Number mean: 0.00824431 max: 0.0753494
Interface Courant Number mean: 0.000206155 max: 0.0679513
deltaT = 0.001
Time = 0.013

smoothSolver:  Solving for alpha.water, Initial residual = 0.00021292, Final residual = 1.5445e-13, No Iterations 2
Phase-1 volume fraction = 0.124752  Min(alpha.water) = 0  Max(alpha.water) = 1
MULES: Correcting alpha.water
MULES: Correcting alpha.water
Phase-1 volume fraction = 0.124752  Min(alpha.water) = -1.71882e-10  Max(alpha.water) = 1
DICPCG:  Solving for p_rgh, Initial residual = 0.0073613, Final residual = 0.000109302, No Iterations 1
time step continuity errors : sum local = 5.35858e-05, global = 1.55539e-08, cumulative = -5.81881e-06
DICPCG:  Solving for p_rgh, Initial residual = 0.000109997, Final residual = 5.05836e-06, No Iterations 9
time step continuity errors : sum local = 2.469e-06, global = 1.41022e-08, cumulative = -5.80471e-06
DICPCG:  Solving for p_rgh, Initial residual = 5.76579e-06, Final residual = 8.74629e-08, No Iterations 39
time step continuity errors : sum local = 4.26897e-08, global = -1.20816e-08, cumulative = -5.81679e-06
ExecutionTime = 0.26 s  ClockTime = 0 s

Courant Number mean: 0.00892139 max: 0.0801548
Interface Courant Number mean: 0.000235187 max: 0.0720393
deltaT = 0.001
Time = 0.014

smoothSolver:  Solving for alpha.water, Initial residual = 0.000229139, Final residual = 1.85809e-13, No Iterations 2
Phase-1 volume fraction = 0.124752  Min(alpha.water) = 0  Max(alpha.water) = 1
MULES: Correcting alpha.water
MULES: Correcting alpha.water
Phase-1 volume fraction = 0.124752  Min(alpha.water) = -2.36408e-10  Max(alpha.water) = 1
DICPCG:  Solving for p_rgh, Initial residual = 0.00800483, Final residual = 0.000110613, No Iterations 1
time step continuity errors : sum local = 5.34553e-05, global = -2.55324e-08, cumulative = -5.84232e-06
DICPCG:  Solving for p_rgh, Initial residual = 0.000111359, Final residual = 5.16737e-06, No Iterations 9
time step continuity errors : sum local = 2.48542e-06, global = -2.46215e-08, cumulative = -5.86694e-06
DICPCG:  Solving for p_rgh, Initial residual = 6.00579e-06, Final residual = 9.56965e-08, No Iterations 65
time step continuity errors : sum local = 4.60273e-08, global = 2.07988e-09, cumulative = -5.86486e-06
ExecutionTime = 0.28 s  ClockTime = 0 s

Courant Number mean: 0.00959885 max: 0.0847605
Interface Courant Number mean: 0.000255932 max: 0.0759026
deltaT = 0.001
Time = 0.015

smoothSolver:  Solving for alpha.water, Initial residual = 0.000245275, Final residual = 2.18275e-13, No Iterations 2
Phase-1 volume fraction = 0.124752  Min(alpha.water) = 0  Max(alpha.water) = 1
MULES: Correcting alpha.water
MULES: Correcting alpha.water
Phase-1 volume fraction = 0.124752  Min(alpha.water) = -2.78018e-10  Max(alpha.water) = 1
DICPCG:  Solving for p_rgh, Initial residual = 0.00866508, Final residual = 0.000113076, No Iterations 1
time step continuity errors : sum local = 5.38872e-05, global = 1.71938e-08, cumulative = -5.84767e-06
DICPCG:  Solving for p_rgh, Initial residual = 0.000113949, Final residual = 5.2934e-06, No Iterations 9
time step continuity errors : sum local = 2.50986e-06, global = 1.60714e-08, cumulative = -5.8316e-06
DICPCG:  Solving for p_rgh, Initial residual = 6.28688e-06, Final residual = 8.52613e-08, No Iterations 38
time step continuity errors : sum local = 4.04257e-08, global = -4.7017e-09, cumulative = -5.8363e-06
ExecutionTime = 0.3 s  ClockTime = 0 s

Courant Number mean: 0.0102759 max: 0.0889579
Interface Courant Number mean: 0.000274437 max: 0.0795905
deltaT = 0.001
Time = 0.016

smoothSolver:  Solving for alpha.water, Initial residual = 0.00026164, Final residual = 2.51306e-13, No Iterations 2
Phase-1 volume fraction = 0.124752  Min(alpha.water) = 0  Max(alpha.water) = 1
MULES: Correcting alpha.water
MULES: Correcting alpha.water
Phase-1 volume fraction = 0.124752  Min(alpha.water) = -2.90598e-10  Max(alpha.water) = 1
DICPCG:  Solving for p_rgh, Initial residual = 0.00932668, Final residual = 0.00011495, No Iterations 1
time step continuity errors : sum local = 5.40446e-05, global = -1.08508e-08, cumulative = -5.84715e-06
DICPCG:  Solving for p_rgh, Initial residual = 0.000116085, Final residual = 5.48332e-06, No Iterations 9
time step continuity errors : sum local = 2.56409e-06, global = -1.12607e-08, cumulative = -5.85841e-06
DICPCG:  Solving for p_rgh, Initial residual = 6.61955e-06, Final residual = 9.55302e-08, No Iterations 62
time step continuity errors : sum local = 4.46709e-08, global = 1.733e-09, cumulative = -5.85668e-06
ExecutionTime = 0.32 s  ClockTime = 0 s

Courant Number mean: 0.0109539 max: 0.0939825
Interface Courant Number mean: 0.000300535 max: 0.088217
deltaT = 0.001
Time = 0.017

smoothSolver:  Solving for alpha.water, Initial residual = 0.000279276, Final residual = 2.83794e-13, No Iterations 2
Phase-1 volume fraction = 0.124752  Min(alpha.water) = 0  Max(alpha.water) = 1
MULES: Correcting alpha.water
MULES: Correcting alpha.water
Phase-1 volume fraction = 0.124752  Min(alpha.water) = -2.58296e-10  Max(alpha.water) = 1
DICPCG:  Solving for p_rgh, Initial residual = 0.00981721, Final residual = 9.69798e-05, No Iterations 1
time step continuity errors : sum local = 4.50843e-05, global = 9.01214e-09, cumulative = -5.84766e-06
DICPCG:  Solving for p_rgh, Initial residual = 9.85911e-05, Final residual = 4.59606e-06, No Iterations 14
time step continuity errors : sum local = 2.12417e-06, global = 1.23605e-08, cumulative = -5.8353e-06
DICPCG:  Solving for p_rgh, Initial residual = 5.79292e-06, Final residual = 9.02872e-08, No Iterations 65
time step continuity errors : sum local = 4.17346e-08, global = 3.05656e-10, cumulative = -5.835e-06
ExecutionTime = 0.34 s  ClockTime = 0 s

Courant Number mean: 0.0116516 max: 0.10445
Interface Courant Number mean: 0.000320143 max: 0.10445
deltaT = 0.001
Time = 0.018

smoothSolver:  Solving for alpha.water, Initial residual = 0.000297403, Final residual = 1.1022e-12, No Iterations 2
Phase-1 volume fraction = 0.124752  Min(alpha.water) = 0  Max(alpha.water) = 1
MULES: Correcting alpha.water
MULES: Correcting alpha.water
Phase-1 volume fraction = 0.124752  Min(alpha.water) = -1.72311e-10  Max(alpha.water) = 1
DICPCG:  Solving for p_rgh, Initial residual = 0.0104904, Final residual = 9.89515e-05, No Iterations 1
time step continuity errors : sum local = 4.53081e-05, global = 2.18323e-10, cumulative = -5.83478e-06
DICPCG:  Solving for p_rgh, Initial residual = 0.000100165, Final residual = 4.93223e-06, No Iterations 10
time step continuity errors : sum local = 2.24427e-06, global = 1.32264e-09, cumulative = -5.83346e-06
DICPCG:  Solving for p_rgh, Initial residual = 5.9193e-06, Final residual = 8.39272e-08, No Iterations 57
time step continuity errors : sum local = 3.81904e-08, global = -6.1446e-10, cumulative = -5.83407e-06
ExecutionTime = 0.35 s  ClockTime = 0 s

Courant Number mean: 0.0123432 max: 0.114591
Interface Courant Number mean: 0.000339677 max: 0.114591
deltaT = 0.001
Time = 0.019

smoothSolver:  Solving for alpha.water, Initial residual = 0.000314816, Final residual = 1.52392e-11, No Iterations 2
Phase-1 volume fraction = 0.124752  Min(alpha.water) = 0  Max(alpha.water) = 1
MULES: Correcting alpha.water
MULES: Correcting alpha.water
Phase-1 volume fraction = 0.124752  Min(alpha.water) = -2.53334e-11  Max(alpha.water) = 1
DICPCG:  Solving for p_rgh, Initial residual = 0.0111937, Final residual = 9.83104e-05, No Iterations 1
time step continuity errors : sum local = 4.43155e-05, global = -3.55667e-10, cumulative = -5.83443e-06
DICPCG:  Solving for p_rgh, Initial residual = 9.93736e-05, Final residual = 4.77601e-06, No Iterations 13
time step continuity errors : sum local = 2.13852e-06, global = 6.39042e-09, cumulative = -5.82804e-06
DICPCG:  Solving for p_rgh, Initial residual = 5.8214e-06, Final residual = 7.53864e-08, No Iterations 35
time step continuity errors : sum local = 3.3761e-08, global = -4.27033e-09, cumulative = -5.83231e-06
ExecutionTime = 0.37 s  ClockTime = 0 s

Courant Number mean: 0.0130312 max: 0.120976
Interface Courant Number mean: 0.000366466 max: 0.120976
deltaT = 0.001
Time = 0.02

smoothSolver:  Solving for alpha.water, Initial residual = 0.00033175, Final residual = 3.15903e-11, No Iterations 2
Phase-1 volume fraction = 0.124752  Min(alpha.water) = 0  Max(alpha.water) = 1
MULES: Correcting alpha.water
MULES: Correcting alpha.water
Phase-1 volume fraction = 0.124752  Min(alpha.water) = -6.66036e-12  Max(alpha.water) = 1
DICPCG:  Solving for p_rgh, Initial residual = 0.0119117, Final residual = 9.9275e-05, No Iterations 1
time step continuity errors : sum local = 4.40344e-05, global = -6.83133e-09, cumulative = -5.83914e-06
DICPCG:  Solving for p_rgh, Initial residual = 0.000100632, Final residual = 5.0228e-06, No Iterations 13
time step continuity errors : sum local = 2.21203e-06, global = -1.41655e-09, cumulative = -5.84056e-06
DICPCG:  Solving for p_rgh, Initial residual = 6.14394e-06, Final residual = 9.76579e-08, No Iterations 28
time step continuity errors : sum local = 4.30168e-08, global = -3.65278e-10, cumulative = -5.84092e-06
ExecutionTime = 0.39 s  ClockTime = 0 s

Courant Number mean: 0.0137159 max: 0.125411
Interface Courant Number mean: 0.000385508 max: 0.125411
deltaT = 0.001
Time = 0.021

smoothSolver:  Solving for alpha.water, Initial residual = 0.000348405, Final residual = 5.09341e-11, No Iterations 2
Phase-1 volume fraction = 0.124752  Min(alpha.water) = 0  Max(alpha.water) = 1
MULES: Correcting alpha.water
MULES: Correcting alpha.water
Phase-1 volume fraction = 0.124752  Min(alpha.water) = -8.949e-12  Max(alpha.water) = 1
DICPCG:  Solving for p_rgh, Initial residual = 0.0126535, Final residual = 0.000101234, No Iterations 1
time step continuity errors : sum local = 4.41459e-05, global = 4.82912e-09, cumulative = -5.83609e-06
DICPCG:  Solving for p_rgh, Initial residual = 0.000102843, Final residual = 4.34933e-06, No Iterations 14
time step continuity errors : sum local = 1.88224e-06, global = 1.47556e-08, cumulative = -5.82134e-06
DICPCG:  Solving for p_rgh, Initial residual = 5.82749e-06, Final residual = 9.12028e-08, No Iterations 35
time step continuity errors : sum local = 3.94796e-08, global = 4.43e-09, cumulative = -5.81691e-06
ExecutionTime = 0.4 s  ClockTime = 0 s

Courant Number mean: 0.0143975 max: 0.13177
Interface Courant Number mean: 0.00041728 max: 0.128326
deltaT = 0.001
Time = 0.022

smoothSolver:  Solving for alpha.water, Initial residual = 0.000364827, Final residual = 7.20419e-11, No Iterations 2
Phase-1 volume fraction = 0.124752  Min(alpha.water) = 0  Max(alpha.water) = 1
MULES: Correcting alpha.water
MULES: Correcting alpha.water
Phase-1 volume fraction = 0.124752  Min(alpha.water) = -1.15532e-11  Max(alpha.water) = 1
DICPCG:  Solving for p_rgh, Initial residual = 0.0134363, Final residual = 0.000107088, No Iterations 1
time step continuity errors : sum local = 4.58424e-05, global = 1.05113e-08, cumulative = -5.80639e-06
DICPCG:  Solving for p_rgh, Initial residual = 0.000109126, Final residual = 4.69415e-06, No Iterations 14
time step continuity errors : sum local = 1.99318e-06, global = 2.73672e-08, cumulative = -5.77903e-06
DICPCG:  Solving for p_rgh, Initial residual = 6.33396e-06, Final residual = 9.69516e-08, No Iterations 56
time step continuity errors : sum local = 4.11785e-08, global = 3.40376e-09, cumulative = -5.77562e-06
ExecutionTime = 0.42 s  ClockTime = 0 s

Courant Number mean: 0.0150724 max: 0.136935
Interface Courant Number mean: 0.00043618 max: 0.12858
deltaT = 0.001
Time = 0.023

smoothSolver:  Solving for alpha.water, Initial residual = 0.000380891, Final residual = 9.3836e-11, No Iterations 2
Phase-1 volume fraction = 0.124752  Min(alpha.water) = 0  Max(alpha.water) = 1
MULES: Correcting alpha.water
MULES: Correcting alpha.water
Phase-1 volume fraction = 0.124752  Min(alpha.water) = -2.03636e-11  Max(alpha.water) = 1
DICPCG:  Solving for p_rgh, Initial residual = 0.0142307, Final residual = 0.000111687, No Iterations 1
time step continuity errors : sum local = 4.68932e-05, global = 3.33553e-09, cumulative = -5.77229e-06
DICPCG:  Solving for p_rgh, Initial residual = 0.000113913, Final residual = 4.93527e-06, No Iterations 14
time step continuity errors : sum local = 2.05437e-06, global = 1.47675e-08, cumulative = -5.75752e-06
DICPCG:  Solving for p_rgh, Initial residual = 6.74835e-06, Final residual = 9.72151e-08, No Iterations 28
time step continuity errors : sum local = 4.04803e-08, global = 1.59993e-08, cumulative = -5.74152e-06
ExecutionTime = 0.44 s  ClockTime = 0 s

Courant Number mean: 0.0157432 max: 0.141268
Interface Courant Number mean: 0.000463188 max: 0.128627
deltaT = 0.001
Time = 0.024

smoothSolver:  Solving for alpha.water, Initial residual = 0.00039679, Final residual = 1.15707e-10, No Iterations 2
Phase-1 volume fraction = 0.124752  Min(alpha.water) = 0  Max(alpha.water) = 1
MULES: Correcting alpha.water
MULES: Correcting alpha.water
Phase-1 volume fraction = 0.124752  Min(alpha.water) = -1.89789e-10  Max(alpha.water) = 1
DICPCG:  Solving for p_rgh, Initial residual = 0.0150518, Final residual = 0.000118279, No Iterations 1
time step continuity errors : sum local = 4.86586e-05, global = 2.97804e-08, cumulative = -5.71174e-06
DICPCG:  Solving for p_rgh, Initial residual = 0.000120844, Final residual = 5.40638e-06, No Iterations 14
time step continuity errors : sum local = 2.20387e-06, global = 4.30267e-08, cumulative = -5.66871e-06
DICPCG:  Solving for p_rgh, Initial residual = 7.38183e-06, Final residual = 8.20334e-08, No Iterations 60
time step continuity errors : sum local = 3.34523e-08, global = 3.53589e-09, cumulative = -5.66518e-06
ExecutionTime = 0.46 s  ClockTime = 0 s

Courant Number mean: 0.0164085 max: 0.144709
Interface Courant Number mean: 0.000490126 max: 0.133382
deltaT = 0.001
Time = 0.025

smoothSolver:  Solving for alpha.water, Initial residual = 0.00041251, Final residual = 1.37098e-10, No Iterations 2
Phase-1 volume fraction = 0.124752  Min(alpha.water) = 0  Max(alpha.water) = 1
MULES: Correcting alpha.water
MULES: Correcting alpha.water
Phase-1 volume fraction = 0.124752  Min(alpha.water) = -5.06815e-10  Max(alpha.water) = 1
DICPCG:  Solving for p_rgh, Initial residual = 0.0158899, Final residual = 0.000127793, No Iterations 1
time step continuity errors : sum local = 5.14594e-05, global = -7.68214e-09, cumulative = -5.67286e-06
DICPCG:  Solving for p_rgh, Initial residual = 0.000130789, Final residual = 5.94665e-06, No Iterations 14
time step continuity errors : sum local = 2.37154e-06, global = 8.27401e-09, cumulative = -5.66459e-06
DICPCG:  Solving for p_rgh, Initial residual = 8.20709e-06, Final residual = 8.63179e-08, No Iterations 28
time step continuity errors : sum local = 3.44378e-08, global = 7.81062e-09, cumulative = -5.65678e-06
ExecutionTime = 0.47 s  ClockTime = 0 s

Courant Number mean: 0.0170696 max: 0.147233
Interface Courant Number mean: 0.000517141 max: 0.1374
deltaT = 0.001
Time = 0.026

smoothSolver:  Solving for alpha.water, Initial residual = 0.000428038, Final residual = 1.57542e-10, No Iterations 2
Phase-1 volume fraction = 0.124752  Min(alpha.water) = 0  Max(alpha.water) = 1
MULES: Correcting alpha.water
MULES: Correcting alpha.water
Phase-1 volume fraction = 0.124752  Min(alpha.water) = -8.02905e-10  Max(alpha.water) = 1
DICPCG:  Solving for p_rgh, Initial residual = 0.0166822, Final residual = 0.000137466, No Iterations 1
time step continuity errors : sum local = 5.41333e-05, global = 1.32249e-08, cumulative = -5.64355e-06
DICPCG:  Solving for p_rgh, Initial residual = 0.000140679, Final residual = 6.59073e-06, No Iterations 14
time step continuity errors : sum local = 2.56904e-06, global = 2.93719e-08, cumulative = -5.61418e-06
DICPCG:  Solving for p_rgh, Initial residual = 9.21134e-06, Final residual = 8.70516e-08, No Iterations 41
time step continuity errors : sum local = 3.3948e-08, global = 1.05325e-08, cumulative = -5.60365e-06
ExecutionTime = 0.49 s  ClockTime = 0 s

Courant Number mean: 0.017728 max: 0.149291
Interface Courant Number mean: 0.000535444 max: 0.140929
deltaT = 0.001
Time = 0.027

smoothSolver:  Solving for alpha.water, Initial residual = 0.000443967, Final residual = 1.76319e-10, No Iterations 2
Phase-1 volume fraction = 0.124752  Min(alpha.water) = 0  Max(alpha.water) = 1
MULES: Correcting alpha.water
MULES: Correcting alpha.water
Phase-1 volume fraction = 0.124752  Min(alpha.water) = -1.07032e-09  Max(alpha.water) = 1
DICPCG:  Solving for p_rgh, Initial residual = 0.0173983, Final residual = 0.000146912, No Iterations 1
time step continuity errors : sum local = 5.65175e-05, global = 1.45759e-08, cumulative = -5.58907e-06
DICPCG:  Solving for p_rgh, Initial residual = 0.000150473, Final residual = 7.39354e-06, No Iterations 14
time step continuity errors : sum local = 2.81413e-06, global = 3.71609e-08, cumulative = -5.55191e-06
DICPCG:  Solving for p_rgh, Initial residual = 1.03372e-05, Final residual = 9.63722e-08, No Iterations 39
time step continuity errors : sum local = 3.67013e-08, global = 8.56306e-09, cumulative = -5.54335e-06
ExecutionTime = 0.51 s  ClockTime = 0 s

Courant Number mean: 0.018385 max: 0.154057
Interface Courant Number mean: 0.000566511 max: 0.14413
deltaT = 0.001
Time = 0.028

smoothSolver:  Solving for alpha.water, Initial residual = 0.000459459, Final residual = 2.08744e-10, No Iterations 2
Phase-1 volume fraction = 0.124752  Min(alpha.water) = 0  Max(alpha.water) = 1
MULES: Correcting alpha.water
MULES: Correcting alpha.water
Phase-1 volume fraction = 0.124752  Min(alpha.water) = -1.30347e-09  Max(alpha.water) = 1
DICPCG:  Solving for p_rgh, Initial residual = 0.0180538, Final residual = 0.00015668, No Iterations 1
time step continuity errors : sum local = 5.88327e-05, global = 7.69735e-09, cumulative = -5.53565e-06
DICPCG:  Solving for p_rgh, Initial residual = 0.000160968, Final residual = 8.04698e-06, No Iterations 14
time step continuity errors : sum local = 2.98861e-06, global = 2.88588e-08, cumulative = -5.50679e-06
DICPCG:  Solving for p_rgh, Initial residual = 1.12944e-05, Final residual = 9.06844e-08, No Iterations 38
time step continuity errors : sum local = 3.36999e-08, global = -4.36656e-09, cumulative = -5.51116e-06
ExecutionTime = 0.52 s  ClockTime = 0 s

Courant Number mean: 0.0190436 max: 0.159844
Interface Courant Number mean: 0.000594444 max: 0.146727
deltaT = 0.001
Time = 0.029

smoothSolver:  Solving for alpha.water, Initial residual = 0.000474729, Final residual = 2.80533e-10, No Iterations 2
Phase-1 volume fraction = 0.124752  Min(alpha.water) = 0  Max(alpha.water) = 1
MULES: Correcting alpha.water
MULES: Correcting alpha.water
Phase-1 volume fraction = 0.124752  Min(alpha.water) = -1.61635e-09  Max(alpha.water) = 1
DICPCG:  Solving for p_rgh, Initial residual = 0.0186602, Final residual = 0.000167417, No Iterations 1
time step continuity errors : sum local = 6.13168e-05, global = -1.62006e-08, cumulative = -5.52736e-06
DICPCG:  Solving for p_rgh, Initial residual = 0.000171985, Final residual = 6.32002e-06, No Iterations 15
time step continuity errors : sum local = 2.28877e-06, global = 2.66994e-08, cumulative = -5.50066e-06
DICPCG:  Solving for p_rgh, Initial residual = 1.00627e-05, Final residual = 9.94246e-08, No Iterations 62
time step continuity errors : sum local = 3.60316e-08, global = 1.17856e-09, cumulative = -5.49948e-06
ExecutionTime = 0.54 s  ClockTime = 0 s

Courant Number mean: 0.0197045 max: 0.164467
Interface Courant Number mean: 0.000643354 max: 0.148188
deltaT = 0.001
Time = 0.03

smoothSolver:  Solving for alpha.water, Initial residual = 0.000490249, Final residual = 4.12315e-10, No Iterations 2
Phase-1 volume fraction = 0.124752  Min(alpha.water) = 0  Max(alpha.water) = 1
MULES: Correcting alpha.water
MULES: Correcting alpha.water
Phase-1 volume fraction = 0.124752  Min(alpha.water) = -1.77292e-09  Max(alpha.water) = 1
DICPCG:  Solving for p_rgh, Initial residual = 0.0192138, Final residual = 0.000178691, No Iterations 1
time step continuity errors : sum local = 6.37826e-05, global = 7.84099e-09, cumulative = -5.49164e-06
DICPCG:  Solving for p_rgh, Initial residual = 0.000183421, Final residual = 6.87001e-06, No Iterations 15
time step continuity errors : sum local = 2.42396e-06, global = 5.28876e-08, cumulative = -5.43875e-06
DICPCG:  Solving for p_rgh, Initial residual = 1.10785e-05, Final residual = 9.37306e-08, No Iterations 37
time step continuity errors : sum local = 3.3097e-08, global = -9.23811e-09, cumulative = -5.44799e-06
ExecutionTime = 0.57 s  ClockTime = 0 s

Courant Number mean: 0.0203662 max: 0.169434
Interface Courant Number mean: 0.000713504 max: 0.156142
deltaT = 0.001
Time = 0.031

smoothSolver:  Solving for alpha.water, Initial residual = 0.000506101, Final residual = 5.70101e-10, No Iterations 2
Phase-1 volume fraction = 0.124752  Min(alpha.water) = 0  Max(alpha.water) = 1
MULES: Correcting alpha.water
MULES: Correcting alpha.water
Phase-1 volume fraction = 0.124752  Min(alpha.water) = -1.653e-09  Max(alpha.water) = 1
DICPCG:  Solving for p_rgh, Initial residual = 0.0197178, Final residual = 0.000191008, No Iterations 1
time step continuity errors : sum local = 6.63953e-05, global = -1.83755e-08, cumulative = -5.46637e-06
DICPCG:  Solving for p_rgh, Initial residual = 0.000196562, Final residual = 7.47339e-06, No Iterations 15
time step continuity errors : sum local = 2.56722e-06, global = 3.53654e-08, cumulative = -5.431e-06
DICPCG:  Solving for p_rgh, Initial residual = 1.21976e-05, Final residual = 8.04706e-08, No Iterations 64
time step continuity errors : sum local = 2.76664e-08, global = 4.86078e-10, cumulative = -5.43051e-06
ExecutionTime = 0.58 s  ClockTime = 0 s

Courant Number mean: 0.0210289 max: 0.174985
Interface Courant Number mean: 0.000811709 max: 0.166272
deltaT = 0.001
Time = 0.032

smoothSolver:  Solving for alpha.water, Initial residual = 0.000521458, Final residual = 7.26445e-10, No Iterations 2
Phase-1 volume fraction = 0.124752  Min(alpha.water) = 0  Max(alpha.water) = 1
MULES: Correcting alpha.water
MULES: Correcting alpha.water
Phase-1 volume fraction = 0.124752  Min(alpha.water) = -1.59497e-09  Max(alpha.water) = 1
DICPCG:  Solving for p_rgh, Initial residual = 0.0201552, Final residual = 0.000203611, No Iterations 1
time step continuity errors : sum local = 6.88736e-05, global = 1.18324e-08, cumulative = -5.41868e-06
DICPCG:  Solving for p_rgh, Initial residual = 0.000209865, Final residual = 7.89407e-06, No Iterations 15
time step continuity errors : sum local = 2.63835e-06, global = 6.71335e-08, cumulative = -5.35155e-06
DICPCG:  Solving for p_rgh, Initial residual = 1.32095e-05, Final residual = 8.97192e-08, No Iterations 38
time step continuity errors : sum local = 3.00122e-08, global = -6.51324e-09, cumulative = -5.35806e-06
ExecutionTime = 0.6 s  ClockTime = 0 s

Courant Number mean: 0.0216918 max: 0.179965
Interface Courant Number mean: 0.000845293 max: 0.175091
deltaT = 0.001
Time = 0.033

smoothSolver:  Solving for alpha.water, Initial residual = 0.000537213, Final residual = 8.79654e-10, No Iterations 2
Phase-1 volume fraction = 0.124752  Min(alpha.water) = 0  Max(alpha.water) = 1
MULES: Correcting alpha.water
MULES: Correcting alpha.water
Phase-1 volume fraction = 0.124752  Min(alpha.water) = -1.48041e-09  Max(alpha.water) = 1
DICPCG:  Solving for p_rgh, Initial residual = 0.0205048, Final residual = 0.00021452, No Iterations 1
time step continuity errors : sum local = 7.05332e-05, global = -1.25552e-08, cumulative = -5.37062e-06
DICPCG:  Solving for p_rgh, Initial residual = 0.000220827, Final residual = 8.36956e-06, No Iterations 15
time step continuity errors : sum local = 2.71859e-06, global = 5.18851e-08, cumulative = -5.31873e-06
DICPCG:  Solving for p_rgh, Initial residual = 1.42745e-05, Final residual = 8.86374e-08, No Iterations 64
time step continuity errors : sum local = 2.88185e-08, global = -1.303e-10, cumulative = -5.31886e-06
ExecutionTime = 0.62 s  ClockTime = 0 s

Courant Number mean: 0.0223557 max: 0.188097
Interface Courant Number mean: 0.000867806 max: 0.181392
deltaT = 0.001
Time = 0.034

smoothSolver:  Solving for alpha.water, Initial residual = 0.000552998, Final residual = 1.00403e-09, No Iterations 2
Phase-1 volume fraction = 0.124752  Min(alpha.water) = 0  Max(alpha.water) = 1
MULES: Correcting alpha.water
MULES: Correcting alpha.water
Phase-1 volume fraction = 0.124752  Min(alpha.water) = -1.42712e-09  Max(alpha.water) = 1
DICPCG:  Solving for p_rgh, Initial residual = 0.0207586, Final residual = 0.000225501, No Iterations 1
time step continuity errors : sum local = 7.20298e-05, global = 7.95057e-09, cumulative = -5.31091e-06
DICPCG:  Solving for p_rgh, Initial residual = 0.000231803, Final residual = 8.74109e-06, No Iterations 15
time step continuity errors : sum local = 2.75809e-06, global = 8.02521e-08, cumulative = -5.23066e-06
DICPCG:  Solving for p_rgh, Initial residual = 1.52321e-05, Final residual = 8.71197e-08, No Iterations 38
time step continuity errors : sum local = 2.75174e-08, global = 1.02062e-09, cumulative = -5.22964e-06
ExecutionTime = 0.64 s  ClockTime = 0 s

Courant Number mean: 0.0230177 max: 0.19635
Interface Courant Number mean: 0.00091683 max: 0.184759
deltaT = 0.001
Time = 0.035

smoothSolver:  Solving for alpha.water, Initial residual = 0.000569495, Final residual = 1.08917e-09, No Iterations 2
Phase-1 volume fraction = 0.124752  Min(alpha.water) = 0  Max(alpha.water) = 1
MULES: Correcting alpha.water
MULES: Correcting alpha.water
Phase-1 volume fraction = 0.124752  Min(alpha.water) = -1.33809e-09  Max(alpha.water) = 1
DICPCG:  Solving for p_rgh, Initial residual = 0.0209418, Final residual = 0.000240157, No Iterations 1
time step continuity errors : sum local = 7.44962e-05, global = 3.08669e-09, cumulative = -5.22655e-06
DICPCG:  Solving for p_rgh, Initial residual = 0.000246568, Final residual = 9.40488e-06, No Iterations 15
time step continuity errors : sum local = 2.88188e-06, global = 8.23413e-08, cumulative = -5.14421e-06
DICPCG:  Solving for p_rgh, Initial residual = 1.65012e-05, Final residual = 9.0186e-08, No Iterations 64
time step continuity errors : sum local = 2.76658e-08, global = -1.08669e-09, cumulative = -5.1453e-06
ExecutionTime = 0.66 s  ClockTime = 0 s

Courant Number mean: 0.0236808 max: 0.203361
Interface Courant Number mean: 0.000941788 max: 0.186375
deltaT = 0.001
Time = 0.036

smoothSolver:  Solving for alpha.water, Initial residual = 0.000585281, Final residual = 1.17645e-09, No Iterations 2
Phase-1 volume fraction = 0.124752  Min(alpha.water) = 0  Max(alpha.water) = 1
MULES: Correcting alpha.water
MULES: Correcting alpha.water
Phase-1 volume fraction = 0.124752  Min(alpha.water) = -3.83597e-10  Max(alpha.water) = 1
DICPCG:  Solving for p_rgh, Initial residual = 0.0210365, Final residual = 0.000259259, No Iterations 1
time step continuity errors : sum local = 7.80864e-05, global = -1.53349e-09, cumulative = -5.14683e-06
DICPCG:  Solving for p_rgh, Initial residual = 0.000266575, Final residual = 1.02854e-05, No Iterations 15
time step continuity errors : sum local = 3.06054e-06, global = 9.01867e-08, cumulative = -5.05664e-06
DICPCG:  Solving for p_rgh, Initial residual = 1.79737e-05, Final residual = 9.74725e-08, No Iterations 40
time step continuity errors : sum local = 2.90384e-08, global = -9.19912e-09, cumulative = -5.06584e-06
ExecutionTime = 0.67 s  ClockTime = 0 s

Courant Number mean: 0.0243459 max: 0.209477
Interface Courant Number mean: 0.000976364 max: 0.186747
deltaT = 0.001
Time = 0.037

smoothSolver:  Solving for alpha.water, Initial residual = 0.000601158, Final residual = 1.32517e-09, No Iterations 2
Phase-1 volume fraction = 0.124752  Min(alpha.water) = 0  Max(alpha.water) = 1
MULES: Correcting alpha.water
MULES: Correcting alpha.water
Phase-1 volume fraction = 0.124752  Min(alpha.water) = -1.24539e-10  Max(alpha.water) = 1
DICPCG:  Solving for p_rgh, Initial residual = 0.0210099, Final residual = 0.000287083, No Iterations 1
time step continuity errors : sum local = 8.40198e-05, global = -1.62625e-08, cumulative = -5.08211e-06
DICPCG:  Solving for p_rgh, Initial residual = 0.000295678, Final residual = 1.14647e-05, No Iterations 15
time step continuity errors : sum local = 3.31679e-06, global = 8.44142e-08, cumulative = -4.99769e-06
DICPCG:  Solving for p_rgh, Initial residual = 2.011e-05, Final residual = 9.27019e-08, No Iterations 65
time step continuity errors : sum local = 2.68518e-08, global = -9.98638e-10, cumulative = -4.99869e-06
ExecutionTime = 0.69 s  ClockTime = 1 s

Courant Number mean: 0.0250166 max: 0.212877
Interface Courant Number mean: 0.00101336 max: 0.185202
deltaT = 0.001
Time = 0.038

smoothSolver:  Solving for alpha.water, Initial residual = 0.000617769, Final residual = 1.58882e-09, No Iterations 2
Phase-1 volume fraction = 0.124752  Min(alpha.water) = 0  Max(alpha.water) = 1
MULES: Correcting alpha.water
MULES: Correcting alpha.water
Phase-1 volume fraction = 0.124752  Min(alpha.water) = -5.84246e-11  Max(alpha.water) = 1
DICPCG:  Solving for p_rgh, Initial residual = 0.0207722, Final residual = 0.000326686, No Iterations 1
time step continuity errors : sum local = 9.30435e-05, global = 8.87587e-09, cumulative = -4.98981e-06
DICPCG:  Solving for p_rgh, Initial residual = 0.000335826, Final residual = 1.33407e-05, No Iterations 15
time step continuity errors : sum local = 3.75666e-06, global = 1.22636e-07, cumulative = -4.86718e-06
DICPCG:  Solving for p_rgh, Initial residual = 2.32984e-05, Final residual = 9.18706e-08, No Iterations 67
time step continuity errors : sum local = 2.59029e-08, global = 1.22194e-11, cumulative = -4.86717e-06
ExecutionTime = 0.71 s  ClockTime = 1 s

Courant Number mean: 0.0256925 max: 0.214447
Interface Courant Number mean: 0.00103379 max: 0.19696
deltaT = 0.001
Time = 0.039

smoothSolver:  Solving for alpha.water, Initial residual = 0.000635343, Final residual = 1.9862e-09, No Iterations 2
Phase-1 volume fraction = 0.124752  Min(alpha.water) = 0  Max(alpha.water) = 1
MULES: Correcting alpha.water
MULES: Correcting alpha.water
Phase-1 volume fraction = 0.124752  Min(alpha.water) = -1.21877e-09  Max(alpha.water) = 1
DICPCG:  Solving for p_rgh, Initial residual = 0.0212608, Final residual = 0.000387288, No Iterations 1
time step continuity errors : sum local = 0.000108616, global = 1.9536e-09, cumulative = -4.86521e-06
DICPCG:  Solving for p_rgh, Initial residual = 0.000398839, Final residual = 1.97423e-05, No Iterations 8
time step continuity errors : sum local = 5.47145e-06, global = 8.63531e-10, cumulative = -4.86435e-06
DICPCG:  Solving for p_rgh, Initial residual = 2.97832e-05, Final residual = 9.2419e-08, No Iterations 75
time step continuity errors : sum local = 2.56186e-08, global = -1.34872e-09, cumulative = -4.8657e-06
ExecutionTime = 0.73 s  ClockTime = 1 s

Courant Number mean: 0.026369 max: 0.216699
Interface Courant Number mean: 0.00108481 max: 0.204264
deltaT = 0.001
Time = 0.04

smoothSolver:  Solving for alpha.water, Initial residual = 0.000652434, Final residual = 2.37451e-09, No Iterations 2
Phase-1 volume fraction = 0.124752  Min(alpha.water) = 0  Max(alpha.water) = 1
MULES: Correcting alpha.water
MULES: Correcting alpha.water
Phase-1 volume fraction = 0.124752  Min(alpha.water) = -3.39761e-09  Max(alpha.water) = 1
DICPCG:  Solving for p_rgh, Initial residual = 0.0211186, Final residual = 0.000424818, No Iterations 1
time step continuity errors : sum local = 0.000115412, global = -7.97003e-10, cumulative = -4.86649e-06
DICPCG:  Solving for p_rgh, Initial residual = 0.000437559, Final residual = 2.18425e-05, No Iterations 7
time step continuity errors : sum local = 5.86672e-06, global = -4.5738e-10, cumulative = -4.86695e-06
DICPCG:  Solving for p_rgh, Initial residual = 3.32912e-05, Final residual = 9.49479e-08, No Iterations 79
time step continuity errors : sum local = 2.55048e-08, global = -3.42275e-10, cumulative = -4.86729e-06
ExecutionTime = 0.75 s  ClockTime = 1 s

Courant Number mean: 0.0270508 max: 0.222424
Interface Courant Number mean: 0.00109629 max: 0.210158
deltaT = 0.001
Time = 0.041

smoothSolver:  Solving for alpha.water, Initial residual = 0.000668969, Final residual = 2.74146e-09, No Iterations 2
Phase-1 volume fraction = 0.124752  Min(alpha.water) = 0  Max(alpha.water) = 1
MULES: Correcting alpha.water
MULES: Correcting alpha.water
Phase-1 volume fraction = 0.124752  Min(alpha.water) = -5.34924e-09  Max(alpha.water) = 1
DICPCG:  Solving for p_rgh, Initial residual = 0.0209684, Final residual = 0.000475071, No Iterations 1
time step continuity errors : sum local = 0.000125588, global = 2.65339e-09, cumulative = -4.86464e-06
DICPCG:  Solving for p_rgh, Initial residual = 0.000490075, Final residual = 2.28773e-05, No Iterations 7
time step continuity errors : sum local = 5.98167e-06, global = 2.66315e-09, cumulative = -4.86198e-06
DICPCG:  Solving for p_rgh, Initial residual = 3.5865e-05, Final residual = 9.41922e-08, No Iterations 79
time step continuity errors : sum local = 2.46304e-08, global = 4.20755e-10, cumulative = -4.86156e-06
ExecutionTime = 0.77 s  ClockTime = 1 s

Courant Number mean: 0.0277304 max: 0.231968
Interface Courant Number mean: 0.00117211 max: 0.214174
deltaT = 0.001
Time = 0.042

smoothSolver:  Solving for alpha.water, Initial residual = 0.000685925, Final residual = 3.06214e-09, No Iterations 2
Phase-1 volume fraction = 0.124752  Min(alpha.water) = 0  Max(alpha.water) = 1
MULES: Correcting alpha.water
MULES: Correcting alpha.water
Phase-1 volume fraction = 0.124752  Min(alpha.water) = -7.18892e-09  Max(alpha.water) = 1
DICPCG:  Solving for p_rgh, Initial residual = 0.0207559, Final residual = 0.000532009, No Iterations 1
time step continuity errors : sum local = 0.000137107, global = 3.05206e-09, cumulative = -4.8585e-06
DICPCG:  Solving for p_rgh, Initial residual = 0.000548041, Final residual = 2.74017e-05, No Iterations 6
time step continuity errors : sum local = 6.98921e-06, global = 3.41944e-09, cumulative = -4.85509e-06
DICPCG:  Solving for p_rgh, Initial residual = 4.14584e-05, Final residual = 9.71757e-08, No Iterations 81
time step continuity errors : sum local = 2.47852e-08, global = 1.14231e-09, cumulative = -4.85394e-06
ExecutionTime = 0.79 s  ClockTime = 1 s

Courant Number mean: 0.0284074 max: 0.239725
Interface Courant Number mean: 0.00116982 max: 0.216344
deltaT = 0.001
Time = 0.043

smoothSolver:  Solving for alpha.water, Initial residual = 0.000702443, Final residual = 3.34064e-09, No Iterations 2
Phase-1 volume fraction = 0.124752  Min(alpha.water) = 0  Max(alpha.water) = 1
MULES: Correcting alpha.water
MULES: Correcting alpha.water
Phase-1 volume fraction = 0.124752  Min(alpha.water) = -6.47748e-09  Max(alpha.water) = 1
DICPCG:  Solving for p_rgh, Initial residual = 0.020451, Final residual = 0.000596715, No Iterations 1
time step continuity errors : sum local = 0.000150295, global = 3.45773e-09, cumulative = -4.85049e-06
DICPCG:  Solving for p_rgh, Initial residual = 0.00061582, Final residual = 2.98891e-05, No Iterations 6
time step continuity errors : sum local = 7.45944e-06, global = 3.13417e-09, cumulative = -4.84735e-06
DICPCG:  Solving for p_rgh, Initial residual = 4.6336e-05, Final residual = 9.53875e-08, No Iterations 82
time step continuity errors : sum local = 2.38051e-08, global = 1.3033e-09, cumulative = -4.84605e-06
ExecutionTime = 0.81 s  ClockTime = 1 s

Courant Number mean: 0.029081 max: 0.24484
Interface Courant Number mean: 0.00120343 max: 0.214681
deltaT = 0.001
Time = 0.044

smoothSolver:  Solving for alpha.water, Initial residual = 0.000717448, Final residual = 3.6013e-09, No Iterations 2
Phase-1 volume fraction = 0.124752  Min(alpha.water) = 0  Max(alpha.water) = 1
MULES: Correcting alpha.water
MULES: Correcting alpha.water
Phase-1 volume fraction = 0.124752  Min(alpha.water) = -4.33542e-09  Max(alpha.water) = 1
DICPCG:  Solving for p_rgh, Initial residual = 0.0193816, Final residual = 0.000576892, No Iterations 1
time step continuity errors : sum local = 0.000143861, global = 3.13763e-09, cumulative = -4.84291e-06
DICPCG:  Solving for p_rgh, Initial residual = 0.000594297, Final residual = 2.90231e-05, No Iterations 7
time step continuity errors : sum local = 7.17856e-06, global = 3.02196e-09, cumulative = -4.83989e-06
DICPCG:  Solving for p_rgh, Initial residual = 4.27516e-05, Final residual = 9.40853e-08, No Iterations 83
time step continuity errors : sum local = 2.3275e-08, global = 4.9059e-10, cumulative = -4.8394e-06
ExecutionTime = 0.83 s  ClockTime = 1 s

Courant Number mean: 0.0297699 max: 0.245669
Interface Courant Number mean: 0.00126311 max: 0.217656
deltaT = 0.001
Time = 0.045

smoothSolver:  Solving for alpha.water, Initial residual = 0.000732363, Final residual = 3.90973e-09, No Iterations 2
Phase-1 volume fraction = 0.124752  Min(alpha.water) = 0  Max(alpha.water) = 1
MULES: Correcting alpha.water
MULES: Correcting alpha.water
Phase-1 volume fraction = 0.124752  Min(alpha.water) = -7.77334e-09  Max(alpha.water) = 1
DICPCG:  Solving for p_rgh, Initial residual = 0.0200185, Final residual = 0.000609933, No Iterations 1
time step continuity errors : sum local = 0.000153281, global = 1.76866e-09, cumulative = -4.83763e-06
DICPCG:  Solving for p_rgh, Initial residual = 0.000631458, Final residual = 2.86251e-05, No Iterations 7
time step continuity errors : sum local = 7.1331e-06, global = 1.13462e-09, cumulative = -4.83649e-06
DICPCG:  Solving for p_rgh, Initial residual = 4.40672e-05, Final residual = 8.9284e-08, No Iterations 82
time step continuity errors : sum local = 2.22524e-08, global = 1.48839e-09, cumulative = -4.83501e-06
ExecutionTime = 0.85 s  ClockTime = 1 s

Courant Number mean: 0.030451 max: 0.244967
Interface Courant Number mean: 0.00127905 max: 0.223896
deltaT = 0.001
Time = 0.046

smoothSolver:  Solving for alpha.water, Initial residual = 0.00074774, Final residual = 4.38855e-09, No Iterations 2
Phase-1 volume fraction = 0.124752  Min(alpha.water) = 0  Max(alpha.water) = 1
MULES: Correcting alpha.water
MULES: Correcting alpha.water
Phase-1 volume fraction = 0.124752  Min(alpha.water) = -1.43407e-08  Max(alpha.water) = 1
DICPCG:  Solving for p_rgh, Initial residual = 0.0187771, Final residual = 0.000692626, No Iterations 1
time step continuity errors : sum local = 0.000171774, global = 4.15157e-09, cumulative = -4.83085e-06
DICPCG:  Solving for p_rgh, Initial residual = 0.000718342, Final residual = 3.22174e-05, No Iterations 7
time step continuity errors : sum local = 7.94244e-06, global = 4.11003e-09, cumulative = -4.82674e-06
DICPCG:  Solving for p_rgh, Initial residual = 5.01243e-05, Final residual = 9.87739e-08, No Iterations 83
time step continuity errors : sum local = 2.43548e-08, global = 1.75364e-09, cumulative = -4.82499e-06
ExecutionTime = 0.87 s  ClockTime = 1 s

Courant Number mean: 0.031124 max: 0.245308
Interface Courant Number mean: 0.00128985 max: 0.228713
deltaT = 0.001
Time = 0.047

smoothSolver:  Solving for alpha.water, Initial residual = 0.000762401, Final residual = 4.87778e-09, No Iterations 2
Phase-1 volume fraction = 0.124752  Min(alpha.water) = 0  Max(alpha.water) = 1
MULES: Correcting alpha.water
MULES: Correcting alpha.water
Phase-1 volume fraction = 0.124752  Min(alpha.water) = -3.93326e-09  Max(alpha.water) = 1
DICPCG:  Solving for p_rgh, Initial residual = 0.018202, Final residual = 0.000732979, No Iterations 1
time step continuity errors : sum local = 0.000185795, global = 3.7552e-09, cumulative = -4.82124e-06
DICPCG:  Solving for p_rgh, Initial residual = 0.000760612, Final residual = 3.78227e-05, No Iterations 6
time step continuity errors : sum local = 9.54275e-06, global = 3.69995e-09, cumulative = -4.81754e-06
DICPCG:  Solving for p_rgh, Initial residual = 5.84626e-05, Final residual = 9.94837e-08, No Iterations 87
time step continuity errors : sum local = 2.50999e-08, global = 1.92302e-09, cumulative = -4.81561e-06
ExecutionTime = 0.89 s  ClockTime = 1 s

Courant Number mean: 0.0317842 max: 0.255127
Interface Courant Number mean: 0.00128 max: 0.232201
deltaT = 0.001
Time = 0.048

smoothSolver:  Solving for alpha.water, Initial residual = 0.000778627, Final residual = 5.43595e-09, No Iterations 2
Phase-1 volume fraction = 0.124752  Min(alpha.water) = 0  Max(alpha.water) = 1
MULES: Correcting alpha.water
MULES: Correcting alpha.water
Phase-1 volume fraction = 0.124752  Min(alpha.water) = -5.3724e-10  Max(alpha.water) = 1
DICPCG:  Solving for p_rgh, Initial residual = 0.0202693, Final residual = 0.000601721, No Iterations 1
time step continuity errors : sum local = 0.000170643, global = 3.53534e-09, cumulative = -4.81208e-06
DICPCG:  Solving for p_rgh, Initial residual = 0.000624954, Final residual = 3.03448e-05, No Iterations 7
time step continuity errors : sum local = 8.54155e-06, global = 3.13138e-09, cumulative = -4.80895e-06
DICPCG:  Solving for p_rgh, Initial residual = 4.50268e-05, Final residual = 9.67301e-08, No Iterations 56
time step continuity errors : sum local = 2.72298e-08, global = -4.60877e-09, cumulative = -4.81355e-06
ExecutionTime = 0.9 s  ClockTime = 1 s

Courant Number mean: 0.0324418 max: 0.262998
Interface Courant Number mean: 0.00119943 max: 0.234486
deltaT = 0.001
Time = 0.049

smoothSolver:  Solving for alpha.water, Initial residual = 0.000792991, Final residual = 5.98941e-09, No Iterations 2
Phase-1 volume fraction = 0.124752  Min(alpha.water) = -7.98149e-13  Max(alpha.water) = 1
MULES: Correcting alpha.water
MULES: Correcting alpha.water
Phase-1 volume fraction = 0.124752  Min(alpha.water) = -8.49289e-11  Max(alpha.water) = 1
DICPCG:  Solving for p_rgh, Initial residual = 0.0223684, Final residual = 0.000393242, No Iterations 1
time step continuity errors : sum local = 0.000126531, global = -9.36171e-09, cumulative = -4.82292e-06
DICPCG:  Solving for p_rgh, Initial residual = 0.000411272, Final residual = 1.94961e-05, No Iterations 9
time step continuity errors : sum local = 6.18702e-06, global = -9.34652e-09, cumulative = -4.83226e-06
DICPCG:  Solving for p_rgh, Initial residual = 3.02485e-05, Final residual = 9.16034e-08, No Iterations 50
time step continuity errors : sum local = 2.90744e-08, global = -6.06453e-09, cumulative = -4.83833e-06
ExecutionTime = 0.92 s  ClockTime = 1 s

Courant Number mean: 0.0330991 max: 0.269215
Interface Courant Number mean: 0.00126818 max: 0.234392
deltaT = 0.001
Time = 0.05

smoothSolver:  Solving for alpha.water, Initial residual = 0.000808142, Final residual = 6.57737e-09, No Iterations 2
Phase-1 volume fraction = 0.124752  Min(alpha.water) = -7.28013e-13  Max(alpha.water) = 1
MULES: Correcting alpha.water
MULES: Correcting alpha.water
Phase-1 volume fraction = 0.124752  Min(alpha.water) = -1.65481e-10  Max(alpha.water) = 1
DICPCG:  Solving for p_rgh, Initial residual = 0.0270903, Final residual = 0.000233993, No Iterations 1
time step continuity errors : sum local = 8.58331e-05, global = -5.57292e-09, cumulative = -4.8439e-06
DICPCG:  Solving for p_rgh, Initial residual = 0.000246959, Final residual = 1.22503e-05, No Iterations 9
time step continuity errors : sum local = 4.40327e-06, global = -6.83669e-09, cumulative = -4.85074e-06
DICPCG:  Solving for p_rgh, Initial residual = 2.04759e-05, Final residual = 8.14482e-08, No Iterations 43
time step continuity errors : sum local = 2.92856e-08, global = -3.01461e-10, cumulative = -4.85104e-06
ExecutionTime = 0.94 s  ClockTime = 1 s

Courant Number mean: 0.0337537 max: 0.268829
Interface Courant Number mean: 0.00135977 max: 0.237623
deltaT = 0.001
Time = 0.051

smoothSolver:  Solving for alpha.water, Initial residual = 0.000824093, Final residual = 7.01902e-09, No Iterations 2
Phase-1 volume fraction = 0.124752  Min(alpha.water) = -6.62914e-13  Max(alpha.water) = 1
MULES: Correcting alpha.water
MULES: Correcting alpha.water
Phase-1 volume fraction = 0.124752  Min(alpha.water) = -6.84946e-09  Max(alpha.water) = 1
DICPCG:  Solving for p_rgh, Initial residual = 0.0274488, Final residual = 0.000262411, No Iterations 1
time step continuity errors : sum local = 9.1901e-05, global = 7.34819e-09, cumulative = -4.84369e-06
DICPCG:  Solving for p_rgh, Initial residual = 0.000275373, Final residual = 1.35523e-05, No Iterations 10
time step continuity errors : sum local = 4.65029e-06, global = 7.62316e-09, cumulative = -4.83607e-06
DICPCG:  Solving for p_rgh, Initial residual = 2.38113e-05, Final residual = 9.51108e-08, No Iterations 42
time step continuity errors : sum local = 3.26533e-08, global = 8.62685e-09, cumulative = -4.82744e-06
ExecutionTime = 0.95 s  ClockTime = 1 s

Courant Number mean: 0.034405 max: 0.267169
Interface Courant Number mean: 0.0014498 max: 0.240981
deltaT = 0.001
Time = 0.052

smoothSolver:  Solving for alpha.water, Initial residual = 0.000839443, Final residual = 7.54886e-09, No Iterations 2
Phase-1 volume fraction = 0.124752  Min(alpha.water) = -6.02612e-13  Max(alpha.water) = 1
MULES: Correcting alpha.water
MULES: Correcting alpha.water
Phase-1 volume fraction = 0.124752  Min(alpha.water) = -1.62832e-08  Max(alpha.water) = 1
DICPCG:  Solving for p_rgh, Initial residual = 0.027555, Final residual = 0.000295765, No Iterations 1
time step continuity errors : sum local = 9.88848e-05, global = 1.9057e-08, cumulative = -4.80838e-06
DICPCG:  Solving for p_rgh, Initial residual = 0.000311254, Final residual = 1.52326e-05, No Iterations 10
time step continuity errors : sum local = 4.99054e-06, global = 1.70821e-08, cumulative = -4.7913e-06
DICPCG:  Solving for p_rgh, Initial residual = 2.70147e-05, Final residual = 9.00223e-08, No Iterations 68
time step continuity errors : sum local = 2.95106e-08, global = -2.36432e-09, cumulative = -4.79367e-06
ExecutionTime = 0.97 s  ClockTime = 1 s

Courant Number mean: 0.0350582 max: 0.267739
Interface Courant Number mean: 0.00152058 max: 0.244294
deltaT = 0.001
Time = 0.053

smoothSolver:  Solving for alpha.water, Initial residual = 0.000856391, Final residual = 8.11719e-09, No Iterations 2
Phase-1 volume fraction = 0.124752  Min(alpha.water) = -5.46842e-13  Max(alpha.water) = 1
MULES: Correcting alpha.water
MULES: Correcting alpha.water
Phase-1 volume fraction = 0.124752  Min(alpha.water) = -1.61806e-08  Max(alpha.water) = 1
DICPCG:  Solving for p_rgh, Initial residual = 0.0274489, Final residual = 0.000343222, No Iterations 1
time step continuity errors : sum local = 0.000109632, global = -1.13432e-08, cumulative = -4.80501e-06
DICPCG:  Solving for p_rgh, Initial residual = 0.000361461, Final residual = 1.7734e-05, No Iterations 9
time step continuity errors : sum local = 5.5548e-06, global = -1.17929e-08, cumulative = -4.8168e-06
DICPCG:  Solving for p_rgh, Initial residual = 3.05714e-05, Final residual = 9.75944e-08, No Iterations 73
time step continuity errors : sum local = 3.05843e-08, global = -1.12878e-09, cumulative = -4.81793e-06
ExecutionTime = 0.99 s  ClockTime = 1 s

Courant Number mean: 0.0357216 max: 0.27758
Interface Courant Number mean: 0.00157416 max: 0.246668
deltaT = 0.001
Time = 0.054

smoothSolver:  Solving for alpha.water, Initial residual = 0.00087646, Final residual = 8.82754e-09, No Iterations 2
Phase-1 volume fraction = 0.124752  Min(alpha.water) = -4.95365e-13  Max(alpha.water) = 1
MULES: Correcting alpha.water
MULES: Correcting alpha.water
Phase-1 volume fraction = 0.124752  Min(alpha.water) = -1.07592e-08  Max(alpha.water) = 1
DICPCG:  Solving for p_rgh, Initial residual = 0.027103, Final residual = 0.000404262, No Iterations 1
time step continuity errors : sum local = 0.000123818, global = 2.06175e-09, cumulative = -4.81587e-06
DICPCG:  Solving for p_rgh, Initial residual = 0.000424441, Final residual = 2.10302e-05, No Iterations 8
time step continuity errors : sum local = 6.31841e-06, global = 1.67987e-09, cumulative = -4.81419e-06
DICPCG:  Solving for p_rgh, Initial residual = 3.65382e-05, Final residual = 9.12335e-08, No Iterations 72
time step continuity errors : sum local = 2.74196e-08, global = -8.60338e-10, cumulative = -4.81505e-06
ExecutionTime = 1.01 s  ClockTime = 1 s

Courant Number mean: 0.0363809 max: 0.284935
Interface Courant Number mean: 0.00159095 max: 0.248138
deltaT = 0.001
Time = 0.055

smoothSolver:  Solving for alpha.water, Initial residual = 0.000892494, Final residual = 9.58701e-09, No Iterations 2
Phase-1 volume fraction = 0.124752  Min(alpha.water) = -4.47881e-13  Max(alpha.water) = 1
MULES: Correcting alpha.water
MULES: Correcting alpha.water
Phase-1 volume fraction = 0.124752  Min(alpha.water) = -2.76339e-10  Max(alpha.water) = 1
DICPCG:  Solving for p_rgh, Initial residual = 0.0271652, Final residual = 0.000468373, No Iterations 1
time step continuity errors : sum local = 0.000138166, global = 1.59724e-09, cumulative = -4.81345e-06
DICPCG:  Solving for p_rgh, Initial residual = 0.000491671, Final residual = 2.29572e-05, No Iterations 9
time step continuity errors : sum local = 6.64606e-06, global = 2.74075e-09, cumulative = -4.81071e-06
DICPCG:  Solving for p_rgh, Initial residual = 4.10675e-05, Final residual = 9.83581e-08, No Iterations 81
time step continuity errors : sum local = 2.84873e-08, global = -1.71632e-10, cumulative = -4.81088e-06
ExecutionTime = 1.04 s  ClockTime = 1 s

Courant Number mean: 0.0370511 max: 0.286622
Interface Courant Number mean: 0.0016247 max: 0.243257
deltaT = 0.001
Time = 0.056

smoothSolver:  Solving for alpha.water, Initial residual = 0.000906997, Final residual = 3.49281e-11, No Iterations 3
Phase-1 volume fraction = 0.124752  Min(alpha.water) = -4.04148e-13  Max(alpha.water) = 1
MULES: Correcting alpha.water
MULES: Correcting alpha.water
Phase-1 volume fraction = 0.124752  Min(alpha.water) = -5.04255e-10  Max(alpha.water) = 1
DICPCG:  Solving for p_rgh, Initial residual = 0.0265998, Final residual = 0.00052168, No Iterations 1
time step continuity errors : sum local = 0.000147629, global = 2.69855e-09, cumulative = -4.80818e-06
DICPCG:  Solving for p_rgh, Initial residual = 0.0005466, Final residual = 2.72787e-05, No Iterations 7
time step continuity errors : sum local = 7.58205e-06, global = 2.00428e-09, cumulative = -4.80618e-06
DICPCG:  Solving for p_rgh, Initial residual = 4.696e-05, Final residual = 9.3962e-08, No Iterations 80
time step continuity errors : sum local = 2.6121e-08, global = 7.87557e-10, cumulative = -4.80539e-06
ExecutionTime = 1.06 s  ClockTime = 1 s

Courant Number mean: 0.0377181 max: 0.285692
Interface Courant Number mean: 0.00166262 max: 0.251091
deltaT = 0.001
Time = 0.057

smoothSolver:  Solving for alpha.water, Initial residual = 0.000922284, Final residual = 3.7919e-11, No Iterations 3
Phase-1 volume fraction = 0.124752  Min(alpha.water) = -3.63695e-13  Max(alpha.water) = 1
MULES: Correcting alpha.water
MULES: Correcting alpha.water
Phase-1 volume fraction = 0.124752  Min(alpha.water) = -8.48577e-09  Max(alpha.water) = 1
DICPCG:  Solving for p_rgh, Initial residual = 0.0258914, Final residual = 0.000583507, No Iterations 1
time step continuity errors : sum local = 0.000158784, global = 3.6198e-09, cumulative = -4.80177e-06
DICPCG:  Solving for p_rgh, Initial residual = 0.000611718, Final residual = 2.9476e-05, No Iterations 7
time step continuity errors : sum local = 7.89312e-06, global = 4.04248e-09, cumulative = -4.79773e-06
DICPCG:  Solving for p_rgh, Initial residual = 5.14201e-05, Final residual = 9.96697e-08, No Iterations 54
time step continuity errors : sum local = 2.66939e-08, global = 4.68629e-09, cumulative = -4.79304e-06
ExecutionTime = 1.08 s  ClockTime = 1 s

Courant Number mean: 0.0383848 max: 0.283732
Interface Courant Number mean: 0.00169065 max: 0.255344
deltaT = 0.001
Time = 0.058

smoothSolver:  Solving for alpha.water, Initial residual = 0.000937701, Final residual = 4.18823e-11, No Iterations 3
Phase-1 volume fraction = 0.124752  Min(alpha.water) = -3.26558e-13  Max(alpha.water) = 1
MULES: Correcting alpha.water
MULES: Correcting alpha.water
Phase-1 volume fraction = 0.124752  Min(alpha.water) = -9.98243e-09  Max(alpha.water) = 1
DICPCG:  Solving for p_rgh, Initial residual = 0.0241036, Final residual = 0.000561371, No Iterations 1
time step continuity errors : sum local = 0.00014892, global = 1.05756e-08, cumulative = -4.78247e-06
DICPCG:  Solving for p_rgh, Initial residual = 0.000588896, Final residual = 2.92077e-05, No Iterations 7
time step continuity errors : sum local = 7.63117e-06, global = 1.12645e-08, cumulative = -4.7712e-06
DICPCG:  Solving for p_rgh, Initial residual = 4.65053e-05, Final residual = 8.5843e-08, No Iterations 80
time step continuity errors : sum local = 2.24351e-08, global = 5.84858e-10, cumulative = -4.77062e-06
ExecutionTime = 1.1 s  ClockTime = 1 s

Courant Number mean: 0.0390428 max: 0.289683
Interface Courant Number mean: 0.00172799 max: 0.257664
deltaT = 0.001
Time = 0.059

smoothSolver:  Solving for alpha.water, Initial residual = 0.000952079, Final residual = 4.62152e-11, No Iterations 3
Phase-1 volume fraction = 0.124752  Min(alpha.water) = -2.92496e-13  Max(alpha.water) = 1
MULES: Correcting alpha.water
MULES: Correcting alpha.water
Phase-1 volume fraction = 0.124752  Min(alpha.water) = -1.60648e-08  Max(alpha.water) = 1
DICPCG:  Solving for p_rgh, Initial residual = 0.0250281, Final residual = 0.000595739, No Iterations 1
time step continuity errors : sum local = 0.000156832, global = -1.67574e-09, cumulative = -4.77229e-06
DICPCG:  Solving for p_rgh, Initial residual = 0.000625943, Final residual = 2.96391e-05, No Iterations 7
time step continuity errors : sum local = 7.68139e-06, global = -1.11171e-09, cumulative = -4.77341e-06
DICPCG:  Solving for p_rgh, Initial residual = 4.92289e-05, Final residual = 8.61628e-08, No Iterations 80
time step continuity errors : sum local = 2.23369e-08, global = 7.58788e-11, cumulative = -4.77333e-06
ExecutionTime = 1.12 s  ClockTime = 1 s

Courant Number mean: 0.0396822 max: 0.298868
Interface Courant Number mean: 0.00174825 max: 0.258742
deltaT = 0.001
Time = 0.06

smoothSolver:  Solving for alpha.water, Initial residual = 0.000967805, Final residual = 5.13808e-11, No Iterations 3
Phase-1 volume fraction = 0.124752  Min(alpha.water) = -2.61154e-13  Max(alpha.water) = 1
MULES: Correcting alpha.water
MULES: Correcting alpha.water
Phase-1 volume fraction = 0.124752  Min(alpha.water) = -1.86265e-08  Max(alpha.water) = 1
DICPCG:  Solving for p_rgh, Initial residual = 0.0231875, Final residual = 0.000682763, No Iterations 1
time step continuity errors : sum local = 0.000174339, global = 1.20873e-09, cumulative = -4.77212e-06
DICPCG:  Solving for p_rgh, Initial residual = 0.000717136, Final residual = 3.36477e-05, No Iterations 7
time step continuity errors : sum local = 8.47698e-06, global = 2.42736e-09, cumulative = -4.76969e-06
DICPCG:  Solving for p_rgh, Initial residual = 5.60191e-05, Final residual = 9.99448e-08, No Iterations 84
time step continuity errors : sum local = 2.51873e-08, global = 1.21164e-09, cumulative = -4.76848e-06
ExecutionTime = 1.14 s  ClockTime = 1 s

Courant Number mean: 0.0403167 max: 0.300819
Interface Courant Number mean: 0.00172537 max: 0.2542
deltaT = 0.001
Time = 0.061

smoothSolver:  Solving for alpha.water, Initial residual = 0.000981657, Final residual = 5.62154e-11, No Iterations 3
Phase-1 volume fraction = 0.124752  Min(alpha.water) = -2.32376e-13  Max(alpha.water) = 1
MULES: Correcting alpha.water
MULES: Correcting alpha.water
Phase-1 volume fraction = 0.124752  Min(alpha.water) = -9.16289e-09  Max(alpha.water) = 1
DICPCG:  Solving for p_rgh, Initial residual = 0.0225991, Final residual = 0.000764647, No Iterations 1
time step continuity errors : sum local = 0.000194128, global = 3.95978e-09, cumulative = -4.76452e-06
DICPCG:  Solving for p_rgh, Initial residual = 0.000804745, Final residual = 3.69447e-05, No Iterations 7
time step continuity errors : sum local = 9.27064e-06, global = 4.07862e-09, cumulative = -4.76044e-06
DICPCG:  Solving for p_rgh, Initial residual = 6.33055e-05, Final residual = 9.88631e-08, No Iterations 85
time step continuity errors : sum local = 2.48145e-08, global = 1.62952e-09, cumulative = -4.75881e-06
ExecutionTime = 1.16 s  ClockTime = 1 s

Courant Number mean: 0.040945 max: 0.300192
Interface Courant Number mean: 0.00177303 max: 0.264477
deltaT = 0.001
Time = 0.062

smoothSolver:  Solving for alpha.water, Initial residual = 0.000995357, Final residual = 6.2417e-11, No Iterations 3
Phase-1 volume fraction = 0.124752  Min(alpha.water) = -2.06107e-13  Max(alpha.water) = 1
MULES: Correcting alpha.water
MULES: Correcting alpha.water
Phase-1 volume fraction = 0.124752  Min(alpha.water) = -1.65274e-08  Max(alpha.water) = 1
DICPCG:  Solving for p_rgh, Initial residual = 0.0231673, Final residual = 0.000734564, No Iterations 1
time step continuity errors : sum local = 0.000194257, global = 3.61597e-09, cumulative = -4.7552e-06
DICPCG:  Solving for p_rgh, Initial residual = 0.000772319, Final residual = 3.6715e-05, No Iterations 7
time step continuity errors : sum local = 9.58785e-06, global = 3.64214e-09, cumulative = -4.75156e-06
DICPCG:  Solving for p_rgh, Initial residual = 6.10718e-05, Final residual = 9.78585e-08, No Iterations 57
time step continuity errors : sum local = 2.55614e-08, global = 3.54886e-09, cumulative = -4.74801e-06
ExecutionTime = 1.17 s  ClockTime = 1 s

Courant Number mean: 0.0415748 max: 0.298929
Interface Courant Number mean: 0.00175063 max: 0.265222
deltaT = 0.001
Time = 0.063

smoothSolver:  Solving for alpha.water, Initial residual = 0.00101004, Final residual = 6.83187e-11, No Iterations 3
Phase-1 volume fraction = 0.124752  Min(alpha.water) = -1.81469e-13  Max(alpha.water) = 1
MULES: Correcting alpha.water
MULES: Correcting alpha.water
Phase-1 volume fraction = 0.124752  Min(alpha.water) = -3.10417e-08  Max(alpha.water) = 1
DICPCG:  Solving for p_rgh, Initial residual = 0.0249711, Final residual = 0.000668089, No Iterations 1
time step continuity errors : sum local = 0.000188384, global = 7.06678e-09, cumulative = -4.74094e-06
DICPCG:  Solving for p_rgh, Initial residual = 0.000703873, Final residual = 3.27312e-05, No Iterations 7
time step continuity errors : sum local = 9.10186e-06, global = 7.39796e-09, cumulative = -4.73354e-06
DICPCG:  Solving for p_rgh, Initial residual = 5.51919e-05, Final residual = 9.51252e-08, No Iterations 87
time step continuity errors : sum local = 2.64582e-08, global = 1.28786e-09, cumulative = -4.73225e-06
ExecutionTime = 1.19 s  ClockTime = 1 s

Courant Number mean: 0.0422055 max: 0.302728
Interface Courant Number mean: 0.00179901 max: 0.267224
deltaT = 0.001
Time = 0.064

smoothSolver:  Solving for alpha.water, Initial residual = 0.00102645, Final residual = 7.45656e-11, No Iterations 3
Phase-1 volume fraction = 0.124752  Min(alpha.water) = -1.57466e-13  Max(alpha.water) = 1
MULES: Correcting alpha.water
MULES: Correcting alpha.water
Phase-1 volume fraction = 0.124752  Min(alpha.water) = -4.25018e-08  Max(alpha.water) = 1
DICPCG:  Solving for p_rgh, Initial residual = 0.0267764, Final residual = 0.000535904, No Iterations 1
time step continuity errors : sum local = 0.000163475, global = 9.20686e-10, cumulative = -4.73133e-06
DICPCG:  Solving for p_rgh, Initial residual = 0.000567303, Final residual = 2.61848e-05, No Iterations 8
time step continuity errors : sum local = 7.84344e-06, global = -7.65228e-10, cumulative = -4.7321e-06
DICPCG:  Solving for p_rgh, Initial residual = 4.88337e-05, Final residual = 9.71707e-08, No Iterations 85
time step continuity errors : sum local = 2.91128e-08, global = 1.09958e-09, cumulative = -4.731e-06
ExecutionTime = 1.21 s  ClockTime = 1 s

Courant Number mean: 0.0428466 max: 0.311443
Interface Courant Number mean: 0.00179815 max: 0.267433
deltaT = 0.001
Time = 0.065

smoothSolver:  Solving for alpha.water, Initial residual = 0.00104443, Final residual = 8.22905e-11, No Iterations 3
Phase-1 volume fraction = 0.124752  Min(alpha.water) = -3.49109e-11  Max(alpha.water) = 1
MULES: Correcting alpha.water
MULES: Correcting alpha.water
Phase-1 volume fraction = 0.124752  Min(alpha.water) = -4.56187e-08  Max(alpha.water) = 1
DICPCG:  Solving for p_rgh, Initial residual = 0.0320967, Final residual = 0.000353179, No Iterations 1
time step continuity errors : sum local = 0.00012192, global = 2.93074e-09, cumulative = -4.72807e-06
DICPCG:  Solving for p_rgh, Initial residual = 0.000378679, Final residual = 1.77416e-05, No Iterations 9
time step continuity errors : sum local = 5.96895e-06, global = 1.91037e-09, cumulative = -4.72616e-06
DICPCG:  Solving for p_rgh, Initial residual = 3.46842e-05, Final residual = 9.34967e-08, No Iterations 78
time step continuity errors : sum local = 3.14722e-08, global = -9.80722e-10, cumulative = -4.72714e-06
ExecutionTime = 1.23 s  ClockTime = 1 s

Courant Number mean: 0.0434907 max: 0.312345
Interface Courant Number mean: 0.00186339 max: 0.277193
deltaT = 0.001
Time = 0.066

smoothSolver:  Solving for alpha.water, Initial residual = 0.00106234, Final residual = 8.93967e-11, No Iterations 3
Phase-1 volume fraction = 0.124752  Min(alpha.water) = -3.21612e-11  Max(alpha.water) = 1
MULES: Correcting alpha.water
MULES: Correcting alpha.water
Phase-1 volume fraction = 0.124752  Min(alpha.water) = -4.08965e-08  Max(alpha.water) = 1
DICPCG:  Solving for p_rgh, Initial residual = 0.0319627, Final residual = 0.000399709, No Iterations 1
time step continuity errors : sum local = 0.000130662, global = -7.17675e-10, cumulative = -4.72786e-06
DICPCG:  Solving for p_rgh, Initial residual = 0.000427997, Final residual = 2.05299e-05, No Iterations 9
time step continuity errors : sum local = 6.541e-06, global = -6.74228e-11, cumulative = -4.72792e-06
DICPCG:  Solving for p_rgh, Initial residual = 4.02493e-05, Final residual = 9.57873e-08, No Iterations 80
time step continuity errors : sum local = 3.05353e-08, global = -5.78996e-11, cumulative = -4.72798e-06
ExecutionTime = 1.25 s  ClockTime = 1 s

Courant Number mean: 0.0441555 max: 0.311107
Interface Courant Number mean: 0.00198118 max: 0.273467
deltaT = 0.001
Time = 0.067

smoothSolver:  Solving for alpha.water, Initial residual = 0.00107818, Final residual = 9.82837e-11, No Iterations 3
Phase-1 volume fraction = 0.124752  Min(alpha.water) = -2.95999e-11  Max(alpha.water) = 1
MULES: Correcting alpha.water
MULES: Correcting alpha.water
Phase-1 volume fraction = 0.124752  Min(alpha.water) = -3.67212e-08  Max(alpha.water) = 1
DICPCG:  Solving for p_rgh, Initial residual = 0.0318496, Final residual = 0.000474834, No Iterations 1
time step continuity errors : sum local = 0.000147447, global = 2.86043e-09, cumulative = -4.72512e-06
DICPCG:  Solving for p_rgh, Initial residual = 0.000507214, Final residual = 2.3846e-05, No Iterations 8
time step continuity errors : sum local = 7.22093e-06, global = 2.3991e-09, cumulative = -4.72272e-06
DICPCG:  Solving for p_rgh, Initial residual = 4.63533e-05, Final residual = 9.52281e-08, No Iterations 72
time step continuity errors : sum local = 2.88468e-08, global = -5.07452e-11, cumulative = -4.72277e-06
ExecutionTime = 1.27 s  ClockTime = 1 s

Courant Number mean: 0.0448001 max: 0.310415
Interface Courant Number mean: 0.00202281 max: 0.272672
deltaT = 0.001
Time = 0.068

smoothSolver:  Solving for alpha.water, Initial residual = 0.00109237, Final residual = 1.07997e-10, No Iterations 3
Phase-1 volume fraction = 0.124752  Min(alpha.water) = -2.72175e-11  Max(alpha.water) = 1
MULES: Correcting alpha.water
MULES: Correcting alpha.water
Phase-1 volume fraction = 0.124752  Min(alpha.water) = -4.21661e-08  Max(alpha.water) = 1
DICPCG:  Solving for p_rgh, Initial residual = 0.0311995, Final residual = 0.000536325, No Iterations 1
time step continuity errors : sum local = 0.00015808, global = 1.79775e-09, cumulative = -4.72098e-06
DICPCG:  Solving for p_rgh, Initial residual = 0.000571699, Final residual = 2.72347e-05, No Iterations 8
time step continuity errors : sum local = 7.83883e-06, global = 2.85419e-09, cumulative = -4.71812e-06
DICPCG:  Solving for p_rgh, Initial residual = 5.2934e-05, Final residual = 9.45619e-08, No Iterations 83
time step continuity errors : sum local = 2.72284e-08, global = 1.72836e-10, cumulative = -4.71795e-06
ExecutionTime = 1.29 s  ClockTime = 1 s

Courant Number mean: 0.0454497 max: 0.315467
Interface Courant Number mean: 0.00206002 max: 0.275642
deltaT = 0.001
Time = 0.069

smoothSolver:  Solving for alpha.water, Initial residual = 0.00110626, Final residual = 1.17726e-10, No Iterations 3
Phase-1 volume fraction = 0.124752  Min(alpha.water) = -2.50048e-11  Max(alpha.water) = 1
[...]
time step continuity errors : sum local = 7.83241e-06, global = -2.18643e-07, cumulative = 8.33078e-05
DICPCG:  Solving for p_rgh, Initial residual = 0.000135374, Final residual = 8.93614e-08, No Iterations 108
time step continuity errors : sum local = 1.68709e-08, global = -7.61348e-12, cumulative = 8.33078e-05
ExecutionTime = 33.67 s  ClockTime = 33 s

Courant Number mean: 0.137503 max: 0.501663
Interface Courant Number mean: 0.0180876 max: 0.397976
deltaT = 0.000833333
Time = 0.984167

smoothSolver:  Solving for alpha.water, Initial residual = 0.00353187, Final residual = 6.45492e-10, No Iterations 3
Phase-1 volume fraction = 0.122595  Min(alpha.water) = -3.15791e-17  Max(alpha.water) = 1
MULES: Correcting alpha.water
MULES: Correcting alpha.water
Phase-1 volume fraction = 0.122595  Min(alpha.water) = -1.34885e-09  Max(alpha.water) = 1
DICPCG:  Solving for p_rgh, Initial residual = 0.0443811, Final residual = 0.000812437, No Iterations 2
time step continuity errors : sum local = 0.000155139, global = -3.32837e-06, cumulative = 7.99794e-05
DICPCG:  Solving for p_rgh, Initial residual = 0.000964192, Final residual = 3.60161e-05, No Iterations 12
time step continuity errors : sum local = 6.79723e-06, global = 1.73116e-08, cumulative = 7.99967e-05
DICPCG:  Solving for p_rgh, Initial residual = 0.000133944, Final residual = 8.78522e-08, No Iterations 103
time step continuity errors : sum local = 1.65841e-08, global = 7.06183e-10, cumulative = 7.99974e-05
ExecutionTime = 33.69 s  ClockTime = 34 s

Courant Number mean: 0.137456 max: 0.502987
Interface Courant Number mean: 0.0178495 max: 0.389126
deltaT = 0.000833333
Time = 0.985

smoothSolver:  Solving for alpha.water, Initial residual = 0.00351123, Final residual = 6.83505e-10, No Iterations 3
Phase-1 volume fraction = 0.122595  Min(alpha.water) = -3.06607e-17  Max(alpha.water) = 1
MULES: Correcting alpha.water
MULES: Correcting alpha.water
Phase-1 volume fraction = 0.122595  Min(alpha.water) = -1.51521e-09  Max(alpha.water) = 1
DICPCG:  Solving for p_rgh, Initial residual = 0.0430958, Final residual = 0.000824252, No Iterations 2
time step continuity errors : sum local = 0.000157285, global = -3.37035e-06, cumulative = 7.66271e-05
DICPCG:  Solving for p_rgh, Initial residual = 0.000977091, Final residual = 4.70729e-05, No Iterations 10
time step continuity errors : sum local = 8.87758e-06, global = 7.46047e-09, cumulative = 7.66345e-05
DICPCG:  Solving for p_rgh, Initial residual = 0.000131223, Final residual = 8.48455e-08, No Iterations 95
time step continuity errors : sum local = 1.6002e-08, global = -2.84674e-10, cumulative = 7.66343e-05
ExecutionTime = 33.71 s  ClockTime = 34 s

Courant Number mean: 0.137423 max: 0.500797
Interface Courant Number mean: 0.0179494 max: 0.380493
deltaT = 0.001
Time = 0.986

smoothSolver:  Solving for alpha.water, Initial residual = 0.00418428, Final residual = 2.1818e-09, No Iterations 3
Phase-1 volume fraction = 0.122595  Min(alpha.water) = -2.95817e-17  Max(alpha.water) = 1
MULES: Correcting alpha.water
MULES: Correcting alpha.water
Phase-1 volume fraction = 0.122595  Min(alpha.water) = -2.63163e-09  Max(alpha.water) = 1
DICPCG:  Solving for p_rgh, Initial residual = 0.052946, Final residual = 0.00100886, No Iterations 2
time step continuity errors : sum local = 0.000272898, global = -4.76133e-06, cumulative = 7.18729e-05
DICPCG:  Solving for p_rgh, Initial residual = 0.00121154, Final residual = 4.93218e-05, No Iterations 12
time step continuity errors : sum local = 1.30888e-05, global = -1.16127e-07, cumulative = 7.17568e-05
DICPCG:  Solving for p_rgh, Initial residual = 0.000169573, Final residual = 9.77267e-08, No Iterations 110
time step continuity errors : sum local = 2.59453e-08, global = -1.50011e-10, cumulative = 7.17567e-05
ExecutionTime = 33.73 s  ClockTime = 34 s

Courant Number mean: 0.164819 max: 0.592535
Interface Courant Number mean: 0.0218089 max: 0.450376
deltaT = 0.001
Time = 0.987

smoothSolver:  Solving for alpha.water, Initial residual = 0.00416694, Final residual = 2.26424e-09, No Iterations 3
Phase-1 volume fraction = 0.122595  Min(alpha.water) = -2.8527e-17  Max(alpha.water) = 1
MULES: Correcting alpha.water
MULES: Correcting alpha.water
Phase-1 volume fraction = 0.122595  Min(alpha.water) = -2.29771e-09  Max(alpha.water) = 1
DICPCG:  Solving for p_rgh, Initial residual = 0.0544898, Final residual = 0.000987313, No Iterations 2
time step continuity errors : sum local = 0.000265478, global = -4.39289e-06, cumulative = 6.73638e-05
DICPCG:  Solving for p_rgh, Initial residual = 0.00117475, Final residual = 5.39792e-05, No Iterations 7
time step continuity errors : sum local = 1.42558e-05, global = -1.62967e-07, cumulative = 6.72008e-05
DICPCG:  Solving for p_rgh, Initial residual = 0.000176686, Final residual = 9.88461e-08, No Iterations 88
time step continuity errors : sum local = 2.61061e-08, global = 5.17398e-09, cumulative = 6.7206e-05
ExecutionTime = 33.75 s  ClockTime = 34 s

Courant Number mean: 0.164743 max: 0.593295
Interface Courant Number mean: 0.0213821 max: 0.445195
deltaT = 0.001
Time = 0.988

smoothSolver:  Solving for alpha.water, Initial residual = 0.00416541, Final residual = 2.42923e-09, No Iterations 3
Phase-1 volume fraction = 0.122595  Min(alpha.water) = -2.7497e-17  Max(alpha.water) = 1
MULES: Correcting alpha.water
MULES: Correcting alpha.water
Phase-1 volume fraction = 0.122595  Min(alpha.water) = -1.9326e-09  Max(alpha.water) = 1
DICPCG:  Solving for p_rgh, Initial residual = 0.0520488, Final residual = 0.000956218, No Iterations 2
time step continuity errors : sum local = 0.000252501, global = -3.89713e-06, cumulative = 6.33088e-05
DICPCG:  Solving for p_rgh, Initial residual = 0.00114117, Final residual = 5.61661e-05, No Iterations 7
time step continuity errors : sum local = 1.45801e-05, global = 1.82468e-07, cumulative = 6.34913e-05
DICPCG:  Solving for p_rgh, Initial residual = 0.000185182, Final residual = 9.78352e-08, No Iterations 111
time step continuity errors : sum local = 2.54007e-08, global = -5.11306e-10, cumulative = 6.34908e-05
ExecutionTime = 33.78 s  ClockTime = 34 s

Courant Number mean: 0.164702 max: 0.59502
Interface Courant Number mean: 0.02114 max: 0.438018
deltaT = 0.001
Time = 0.989

smoothSolver:  Solving for alpha.water, Initial residual = 0.00415679, Final residual = 2.57193e-09, No Iterations 3
Phase-1 volume fraction = 0.122595  Min(alpha.water) = -2.64922e-17  Max(alpha.water) = 1
MULES: Correcting alpha.water
MULES: Correcting alpha.water
Phase-1 volume fraction = 0.122595  Min(alpha.water) = -1.70063e-09  Max(alpha.water) = 1
DICPCG:  Solving for p_rgh, Initial residual = 0.0504305, Final residual = 0.000907955, No Iterations 2
time step continuity errors : sum local = 0.000235189, global = -3.80416e-06, cumulative = 5.96866e-05
DICPCG:  Solving for p_rgh, Initial residual = 0.00108882, Final residual = 5.38123e-05, No Iterations 7
time step continuity errors : sum local = 1.37216e-05, global = -1.25295e-07, cumulative = 5.95613e-05
DICPCG:  Solving for p_rgh, Initial residual = 0.000179745, Final residual = 8.52093e-08, No Iterations 105
time step continuity errors : sum local = 2.1731e-08, global = 6.63043e-11, cumulative = 5.95614e-05
ExecutionTime = 33.8 s  ClockTime = 34 s

Courant Number mean: 0.164666 max: 0.591221
Interface Courant Number mean: 0.0209823 max: 0.429927
deltaT = 0.001
Time = 0.99

smoothSolver:  Solving for alpha.water, Initial residual = 0.00413822, Final residual = 2.74337e-09, No Iterations 3
Phase-1 volume fraction = 0.122595  Min(alpha.water) = -2.55127e-17  Max(alpha.water) = 1
MULES: Correcting alpha.water
MULES: Correcting alpha.water
Phase-1 volume fraction = 0.122595  Min(alpha.water) = -1.67468e-09  Max(alpha.water) = 1
DICPCG:  Solving for p_rgh, Initial residual = 0.0506882, Final residual = 0.000887479, No Iterations 2
time step continuity errors : sum local = 0.000233412, global = -3.22527e-06, cumulative = 5.63361e-05
DICPCG:  Solving for p_rgh, Initial residual = 0.00106322, Final residual = 4.35517e-05, No Iterations 8
time step continuity errors : sum local = 1.12807e-05, global = -1.13114e-07, cumulative = 5.6223e-05
DICPCG:  Solving for p_rgh, Initial residual = 0.000157658, Final residual = 9.84665e-08, No Iterations 86
time step continuity errors : sum local = 2.55069e-08, global = -7.66669e-10, cumulative = 5.62223e-05
ExecutionTime = 33.82 s  ClockTime = 34 s

Courant Number mean: 0.1646 max: 0.584469
Interface Courant Number mean: 0.0209072 max: 0.422013
deltaT = 0.001
Time = 0.991

smoothSolver:  Solving for alpha.water, Initial residual = 0.00412575, Final residual = 2.94493e-09, No Iterations 3
Phase-1 volume fraction = 0.122594  Min(alpha.water) = -2.4559e-17  Max(alpha.water) = 1
MULES: Correcting alpha.water
MULES: Correcting alpha.water
Phase-1 volume fraction = 0.122594  Min(alpha.water) = -1.88153e-09  Max(alpha.water) = 1
DICPCG:  Solving for p_rgh, Initial residual = 0.0494347, Final residual = 0.000789012, No Iterations 2
time step continuity errors : sum local = 0.000213467, global = -3.02573e-06, cumulative = 5.31965e-05
DICPCG:  Solving for p_rgh, Initial residual = 0.000965575, Final residual = 4.78575e-05, No Iterations 10
time step continuity errors : sum local = 1.27564e-05, global = 2.96823e-08, cumulative = 5.32262e-05
DICPCG:  Solving for p_rgh, Initial residual = 0.000158642, Final residual = 9.12546e-08, No Iterations 96
time step continuity errors : sum local = 2.43246e-08, global = 6.74427e-10, cumulative = 5.32269e-05
ExecutionTime = 33.84 s  ClockTime = 34 s

Courant Number mean: 0.164542 max: 0.58272
Interface Courant Number mean: 0.0206981 max: 0.417831
deltaT = 0.001
Time = 0.992

smoothSolver:  Solving for alpha.water, Initial residual = 0.00409942, Final residual = 3.14576e-09, No Iterations 3
Phase-1 volume fraction = 0.122594  Min(alpha.water) = -2.36312e-17  Max(alpha.water) = 1
MULES: Correcting alpha.water
MULES: Correcting alpha.water
Phase-1 volume fraction = 0.122594  Min(alpha.water) = -2.19404e-09  Max(alpha.water) = 1
DICPCG:  Solving for p_rgh, Initial residual = 0.0474776, Final residual = 0.000792944, No Iterations 2
time step continuity errors : sum local = 0.000215299, global = -2.43078e-06, cumulative = 5.07961e-05
DICPCG:  Solving for p_rgh, Initial residual = 0.000964765, Final residual = 4.61548e-05, No Iterations 10
time step continuity errors : sum local = 1.23464e-05, global = -4.66279e-08, cumulative = 5.07495e-05
DICPCG:  Solving for p_rgh, Initial residual = 0.00015437, Final residual = 9.42614e-08, No Iterations 100
time step continuity errors : sum local = 2.52144e-08, global = -2.1713e-10, cumulative = 5.07493e-05
ExecutionTime = 33.86 s  ClockTime = 34 s

Courant Number mean: 0.164484 max: 0.580977
Interface Courant Number mean: 0.0205117 max: 0.410569
deltaT = 0.001
Time = 0.993

smoothSolver:  Solving for alpha.water, Initial residual = 0.00408348, Final residual = 3.34828e-09, No Iterations 3
Phase-1 volume fraction = 0.122593  Min(alpha.water) = -2.27292e-17  Max(alpha.water) = 1
MULES: Correcting alpha.water
MULES: Correcting alpha.water
Phase-1 volume fraction = 0.122593  Min(alpha.water) = -2.42287e-09  Max(alpha.water) = 1
DICPCG:  Solving for p_rgh, Initial residual = 0.0476277, Final residual = 0.000841999, No Iterations 2
time step continuity errors : sum local = 0.000231112, global = -1.84701e-06, cumulative = 4.89022e-05
DICPCG:  Solving for p_rgh, Initial residual = 0.00101114, Final residual = 4.42301e-05, No Iterations 8
time step continuity errors : sum local = 1.19645e-05, global = 2.14435e-07, cumulative = 4.91167e-05
DICPCG:  Solving for p_rgh, Initial residual = 0.000153283, Final residual = 9.21095e-08, No Iterations 87
time step continuity errors : sum local = 2.4916e-08, global = 5.92155e-11, cumulative = 4.91167e-05
ExecutionTime = 33.88 s  ClockTime = 34 s

Courant Number mean: 0.164417 max: 0.580657
Interface Courant Number mean: 0.0207881 max: 0.406547
deltaT = 0.001
Time = 0.994

smoothSolver:  Solving for alpha.water, Initial residual = 0.00407076, Final residual = 3.51863e-09, No Iterations 3
Phase-1 volume fraction = 0.122593  Min(alpha.water) = -2.18529e-17  Max(alpha.water) = 1
MULES: Correcting alpha.water
MULES: Correcting alpha.water
Phase-1 volume fraction = 0.122593  Min(alpha.water) = -3.0348e-09  Max(alpha.water) = 1
DICPCG:  Solving for p_rgh, Initial residual = 0.0472453, Final residual = 0.000850157, No Iterations 2
time step continuity errors : sum local = 0.000236822, global = -1.81873e-06, cumulative = 4.7298e-05
DICPCG:  Solving for p_rgh, Initial residual = 0.00101338, Final residual = 3.52666e-05, No Iterations 8
time step continuity errors : sum local = 9.68095e-06, global = 2.66105e-07, cumulative = 4.75641e-05
DICPCG:  Solving for p_rgh, Initial residual = 0.000146361, Final residual = 9.36486e-08, No Iterations 95
time step continuity errors : sum local = 2.57108e-08, global = 1.11684e-09, cumulative = 4.75652e-05
ExecutionTime = 33.9 s  ClockTime = 34 s

Courant Number mean: 0.164353 max: 0.580566
Interface Courant Number mean: 0.0205126 max: 0.400972
deltaT = 0.001
Time = 0.995

smoothSolver:  Solving for alpha.water, Initial residual = 0.00406828, Final residual = 3.6503e-09, No Iterations 3
Phase-1 volume fraction = 0.122592  Min(alpha.water) = -2.10021e-17  Max(alpha.water) = 1
MULES: Correcting alpha.water
MULES: Correcting alpha.water
Phase-1 volume fraction = 0.122592  Min(alpha.water) = -2.99009e-09  Max(alpha.water) = 1
DICPCG:  Solving for p_rgh, Initial residual = 0.0468393, Final residual = 0.000768354, No Iterations 2
time step continuity errors : sum local = 0.000221199, global = -1.35125e-06, cumulative = 4.6214e-05
DICPCG:  Solving for p_rgh, Initial residual = 0.00092643, Final residual = 4.22076e-05, No Iterations 11
time step continuity errors : sum local = 1.19536e-05, global = -1.05824e-07, cumulative = 4.61082e-05
DICPCG:  Solving for p_rgh, Initial residual = 0.00014634, Final residual = 9.82873e-08, No Iterations 82
time step continuity errors : sum local = 2.78346e-08, global = -1.80953e-09, cumulative = 4.61064e-05
ExecutionTime = 33.92 s  ClockTime = 34 s

Courant Number mean: 0.164286 max: 0.580584
Interface Courant Number mean: 0.0204989 max: 0.427514
deltaT = 0.001
Time = 0.996

smoothSolver:  Solving for alpha.water, Initial residual = 0.00405445, Final residual = 3.69884e-09, No Iterations 3
Phase-1 volume fraction = 0.122591  Min(alpha.water) = -2.01765e-17  Max(alpha.water) = 1
MULES: Correcting alpha.water
MULES: Correcting alpha.water
Phase-1 volume fraction = 0.122591  Min(alpha.water) = -3.78995e-09  Max(alpha.water) = 1
DICPCG:  Solving for p_rgh, Initial residual = 0.0466834, Final residual = 0.000737915, No Iterations 2
time step continuity errors : sum local = 0.000219952, global = -5.82729e-07, cumulative = 4.55236e-05
DICPCG:  Solving for p_rgh, Initial residual = 0.000886232, Final residual = 4.07121e-05, No Iterations 9
time step continuity errors : sum local = 1.1921e-05, global = 2.93903e-07, cumulative = 4.58175e-05
DICPCG:  Solving for p_rgh, Initial residual = 0.00013143, Final residual = 9.82829e-08, No Iterations 102
time step continuity errors : sum local = 2.8778e-08, global = 1.71046e-09, cumulative = 4.58192e-05
ExecutionTime = 33.95 s  ClockTime = 34 s

Courant Number mean: 0.164233 max: 0.580622
Interface Courant Number mean: 0.0205327 max: 0.428915
deltaT = 0.001
Time = 0.997

smoothSolver:  Solving for alpha.water, Initial residual = 0.00404673, Final residual = 3.80299e-09, No Iterations 3
Phase-1 volume fraction = 0.12259  Min(alpha.water) = -1.98144e-17  Max(alpha.water) = 1
MULES: Correcting alpha.water
MULES: Correcting alpha.water
Phase-1 volume fraction = 0.12259  Min(alpha.water) = -3.7033e-09  Max(alpha.water) = 1
DICPCG:  Solving for p_rgh, Initial residual = 0.0471515, Final residual = 0.000750087, No Iterations 2
time step continuity errors : sum local = 0.000223172, global = -5.39186e-07, cumulative = 4.528e-05
DICPCG:  Solving for p_rgh, Initial residual = 0.000897687, Final residual = 3.89695e-05, No Iterations 8
time step continuity errors : sum local = 1.13936e-05, global = 5.25928e-07, cumulative = 4.5806e-05
DICPCG:  Solving for p_rgh, Initial residual = 0.000133811, Final residual = 8.60682e-08, No Iterations 89
time step continuity errors : sum local = 2.5164e-08, global = 1.92501e-09, cumulative = 4.58079e-05
ExecutionTime = 33.97 s  ClockTime = 34 s

Courant Number mean: 0.1642 max: 0.580668
Interface Courant Number mean: 0.0206704 max: 0.447805
deltaT = 0.001
Time = 0.998

smoothSolver:  Solving for alpha.water, Initial residual = 0.00404216, Final residual = 3.83877e-09, No Iterations 3
Phase-1 volume fraction = 0.122589  Min(alpha.water) = -1.96437e-17  Max(alpha.water) = 1
MULES: Correcting alpha.water
MULES: Correcting alpha.water
Phase-1 volume fraction = 0.122589  Min(alpha.water) = -3.59346e-09  Max(alpha.water) = 1
DICPCG:  Solving for p_rgh, Initial residual = 0.0458774, Final residual = 0.000703284, No Iterations 2
time step continuity errors : sum local = 0.000209611, global = -1.02142e-06, cumulative = 4.47865e-05
DICPCG:  Solving for p_rgh, Initial residual = 0.000854565, Final residual = 4.2085e-05, No Iterations 9
time step continuity errors : sum local = 1.2335e-05, global = 2.31899e-07, cumulative = 4.50184e-05
DICPCG:  Solving for p_rgh, Initial residual = 0.000128901, Final residual = 9.83287e-08, No Iterations 88
time step continuity errors : sum local = 2.8824e-08, global = 2.01771e-09, cumulative = 4.50204e-05
ExecutionTime = 33.99 s  ClockTime = 34 s

Courant Number mean: 0.164171 max: 0.580644
Interface Courant Number mean: 0.0206921 max: 0.43222
deltaT = 0.001
Time = 0.999

smoothSolver:  Solving for alpha.water, Initial residual = 0.0040317, Final residual = 3.78384e-09, No Iterations 3
Phase-1 volume fraction = 0.122587  Min(alpha.water) = -1.94441e-17  Max(alpha.water) = 1
MULES: Correcting alpha.water
MULES: Correcting alpha.water
Phase-1 volume fraction = 0.122587  Min(alpha.water) = -3.52623e-09  Max(alpha.water) = 1
DICPCG:  Solving for p_rgh, Initial residual = 0.0459408, Final residual = 0.000699161, No Iterations 2
time step continuity errors : sum local = 0.000210057, global = -3.54009e-07, cumulative = 4.46664e-05
DICPCG:  Solving for p_rgh, Initial residual = 0.000858633, Final residual = 4.23932e-05, No Iterations 9
time step continuity errors : sum local = 1.25371e-05, global = 5.03162e-07, cumulative = 4.51695e-05
DICPCG:  Solving for p_rgh, Initial residual = 0.000135697, Final residual = 9.05351e-08, No Iterations 89
time step continuity errors : sum local = 2.67783e-08, global = -4.23774e-11, cumulative = 4.51695e-05
ExecutionTime = 34.02 s  ClockTime = 34 s

Courant Number mean: 0.164161 max: 0.580496
Interface Courant Number mean: 0.0203583 max: 0.426899
deltaT = 0.001
Time = 1

smoothSolver:  Solving for alpha.water, Initial residual = 0.00401986, Final residual = 3.62092e-09, No Iterations 3
Phase-1 volume fraction = 0.122586  Min(alpha.water) = -1.92181e-17  Max(alpha.water) = 1
MULES: Correcting alpha.water
MULES: Correcting alpha.water
Phase-1 volume fraction = 0.122586  Min(alpha.water) = -4.96853e-09  Max(alpha.water) = 1
DICPCG:  Solving for p_rgh, Initial residual = 0.0450489, Final residual = 0.000710357, No Iterations 2
time step continuity errors : sum local = 0.000213159, global = -2.90328e-07, cumulative = 4.48792e-05
DICPCG:  Solving for p_rgh, Initial residual = 0.000861243, Final residual = 3.36506e-05, No Iterations 9
time step continuity errors : sum local = 9.94356e-06, global = 1.79006e-07, cumulative = 4.50582e-05
DICPCG:  Solving for p_rgh, Initial residual = 0.000127216, Final residual = 8.99417e-08, No Iterations 89
time step continuity errors : sum local = 2.65785e-08, global = 8.31801e-10, cumulative = 4.5059e-05
ExecutionTime = 34.03 s  ClockTime = 34 s

End

