/*---------------------------------------------------------------------------*\
  =========                 |
  \\      /  F ield         | OpenFOAM: The Open Source CFD Toolbox
   \\    /   O peration     | Website:  https://openfoam.org
    \\  /    A nd           | Version:  7
     \\/     M anipulation  |
\*---------------------------------------------------------------------------*/
Build  : 7-1ff648926f77
Exec   : interFoam -parallel
Date   : Mar 28 2024
Time   : 11:24:58
Host   : "pass1234-VirtualBox"
PID    : 14368
I/O    : uncollated
Case   : /home/pass1234/OpenFOAM/pass1234-7/run/damBreak
nProcs : 2
Slaves : 1("pass1234-VirtualBox.14369")
Pstream initialized with:
    floatTransfer      : 0
    nProcsSimpleSum    : 0
    commsType          : nonBlocking
    polling iterations : 0
sigFpe : Enabling floating point exception trapping (FOAM_SIGFPE).
fileModificationChecking : Monitoring run-time modified files using timeStampMaster (fileModificationSkew 10)
allowSystemOperations : Allowing user-supplied system call operations

// * * * * * * * * * * * * * * * * * * * * * * * * * * * * * * * * * * * * * //
Create time

Create mesh for time = 0


PIMPLE: No convergence criteria found


PIMPLE: Operating solver in transient mode with 1 outer corrector
PIMPLE: Operating solver in PISO mode


Reading field p_rgh

Reading field U

Reading/calculating face flux field phi

Reading transportProperties

Selecting incompressible transport model Newtonian
Selecting incompressible transport model Newtonian
Selecting turbulence model type laminar
Selecting laminar stress model Stokes

Reading g

Reading hRef
Calculating field g.h

No MRF models present

No finite volume options present
DICPCG:  Solving for pcorr, Initial residual = 0, Final residual = 0, No Iterations 0
time step continuity errors : sum local = 0, global = 0, cumulative = 0
Courant Number mean: 0 max: 0

Starting time loop

Courant Number mean: 0 max: 0
Interface Courant Number mean: 0 max: 0
deltaT = 0.001
Time = 0.001

smoothSolver:  Solving for alpha.water, Initial residual = 0, Final residual = 0, No Iterations 0
Phase-1 volume fraction = 0.124752  Min(alpha.water) = 0  Max(alpha.water) = 1
MULES: Correcting alpha.water
MULES: Correcting alpha.water
Phase-1 volume fraction = 0.124752  Min(alpha.water) = 0  Max(alpha.water) = 1
DICPCG:  Solving for p_rgh, Initial residual = 1, Final residual = 0.00339223, No Iterations 1
time step continuity errors : sum local = 0.00121713, global = -1.82651e-19, cumulative = -1.82651e-19
DICPCG:  Solving for p_rgh, Initial residual = 0.00164942, Final residual = 6.37135e-05, No Iterations 24
time step continuity errors : sum local = 4.70344e-05, global = -5.47375e-06, cumulative = -5.47375e-06
DICPCG:  Solving for p_rgh, Initial residual = 5.32318e-05, Final residual = 9.52663e-08, No Iterations 92
time step continuity errors : sum local = 8.42078e-08, global = 3.90373e-09, cumulative = -5.46985e-06
ExecutionTime = 0.02 s  ClockTime = 0 s

Courant Number mean: 0.000962851 max: 0.149451
Interface Courant Number mean: 0 max: 0
deltaT = 0.001
Time = 0.002

smoothSolver:  Solving for alpha.water, Initial residual = 9.90643e-05, Final residual = 1.44114e-12, No Iterations 2
Phase-1 volume fraction = 0.124752  Min(alpha.water) = 0  Max(alpha.water) = 1
MULES: Correcting alpha.water
MULES: Correcting alpha.water
Phase-1 volume fraction = 0.124752  Min(alpha.water) = -3.46431e-13  Max(alpha.water) = 1
DICPCG:  Solving for p_rgh, Initial residual = 0.00209309, Final residual = 5.72988e-05, No Iterations 2
time step continuity errors : sum local = 4.36628e-05, global = 1.29928e-08, cumulative = -5.45685e-06
DICPCG:  Solving for p_rgh, Initial residual = 0.000104327, Final residual = 5.1411e-06, No Iterations 65
time step continuity errors : sum local = 3.9188e-06, global = 2.08334e-07, cumulative = -5.24852e-06
DICPCG:  Solving for p_rgh, Initial residual = 1.53391e-05, Final residual = 8.42394e-08, No Iterations 81
time step continuity errors : sum local = 6.42058e-08, global = 1.64009e-09, cumulative = -5.24688e-06
ExecutionTime = 0.04 s  ClockTime = 0 s

Courant Number mean: 0.00147621 max: 0.0632682
Interface Courant Number mean: 1.59546e-05 max: 0.0632682
deltaT = 0.001
Time = 0.003

smoothSolver:  Solving for alpha.water, Initial residual = 6.43392e-05, Final residual = 1.88859e-09, No Iterations 1
Phase-1 volume fraction = 0.124752  Min(alpha.water) = 0  Max(alpha.water) = 1
MULES: Correcting alpha.water
MULES: Correcting alpha.water
Phase-1 volume fraction = 0.124752  Min(alpha.water) = -1.21837e-18  Max(alpha.water) = 1
DICPCG:  Solving for p_rgh, Initial residual = 0.00181044, Final residual = 3.99318e-05, No Iterations 2
time step continuity errors : sum local = 2.75332e-05, global = -5.79486e-10, cumulative = -5.24746e-06
DICPCG:  Solving for p_rgh, Initial residual = 4.02986e-05, Final residual = 1.97515e-06, No Iterations 63
time step continuity errors : sum local = 1.36114e-06, global = -8.1093e-08, cumulative = -5.32855e-06
DICPCG:  Solving for p_rgh, Initial residual = 2.16305e-06, Final residual = 9.12373e-08, No Iterations 66
time step continuity errors : sum local = 6.28875e-08, global = -2.97488e-09, cumulative = -5.33153e-06
ExecutionTime = 0.05 s  ClockTime = 0 s

Courant Number mean: 0.00212623 max: 0.0489816
Interface Courant Number mean: 1.16234e-05 max: 0.0412533
deltaT = 0.001
Time = 0.004

smoothSolver:  Solving for alpha.water, Initial residual = 6.885e-05, Final residual = 1.59874e-09, No Iterations 1
Phase-1 volume fraction = 0.124752  Min(alpha.water) = 0  Max(alpha.water) = 1
MULES: Correcting alpha.water
MULES: Correcting alpha.water
Phase-1 volume fraction = 0.124752  Min(alpha.water) = -2.9252e-18  Max(alpha.water) = 1
DICPCG:  Solving for p_rgh, Initial residual = 0.00206885, Final residual = 3.33351e-05, No Iterations 2
time step continuity errors : sum local = 2.11735e-05, global = -7.27661e-09, cumulative = -5.3388e-06
DICPCG:  Solving for p_rgh, Initial residual = 3.36765e-05, Final residual = 1.66727e-06, No Iterations 23
time step continuity errors : sum local = 1.05783e-06, global = -8.88571e-08, cumulative = -5.42766e-06
DICPCG:  Solving for p_rgh, Initial residual = 1.76723e-06, Final residual = 8.64934e-08, No Iterations 66
time step continuity errors : sum local = 5.48845e-08, global = 2.805e-09, cumulative = -5.42486e-06
ExecutionTime = 0.06 s  ClockTime = 0 s

Courant Number mean: 0.00279991 max: 0.0478951
Interface Courant Number mean: 2.04062e-05 max: 0.0369674
deltaT = 0.001
Time = 0.005

smoothSolver:  Solving for alpha.water, Initial residual = 8.27204e-05, Final residual = 2.47104e-09, No Iterations 1
Phase-1 volume fraction = 0.124752  Min(alpha.water) = 0  Max(alpha.water) = 1
MULES: Correcting alpha.water
MULES: Correcting alpha.water
Phase-1 volume fraction = 0.124752  Min(alpha.water) = -6.3864e-18  Max(alpha.water) = 1
DICPCG:  Solving for p_rgh, Initial residual = 0.002557, Final residual = 0.000109228, No Iterations 1
time step continuity errors : sum local = 6.52491e-05, global = 9.36701e-09, cumulative = -5.41549e-06
DICPCG:  Solving for p_rgh, Initial residual = 0.000110161, Final residual = 5.40191e-06, No Iterations 8
time step continuity errors : sum local = 3.22201e-06, global = 8.48855e-09, cumulative = -5.407e-06
DICPCG:  Solving for p_rgh, Initial residual = 5.51802e-06, Final residual = 9.96055e-08, No Iterations 79
time step continuity errors : sum local = 5.94074e-08, global = 3.16234e-09, cumulative = -5.40384e-06
ExecutionTime = 0.08 s  ClockTime = 0 s

Courant Number mean: 0.00348198 max: 0.0491675
Interface Courant Number mean: 5.62841e-05 max: 0.036239
deltaT = 0.001
Time = 0.006

smoothSolver:  Solving for alpha.water, Initial residual = 9.83875e-05, Final residual = 4.16359e-09, No Iterations 1
Phase-1 volume fraction = 0.124752  Min(alpha.water) = 0  Max(alpha.water) = 1
MULES: Correcting alpha.water
MULES: Correcting alpha.water
Phase-1 volume fraction = 0.124752  Min(alpha.water) = -3.36507e-12  Max(alpha.water) = 1
DICPCG:  Solving for p_rgh, Initial residual = 0.00311902, Final residual = 0.000110331, No Iterations 1
time step continuity errors : sum local = 6.29825e-05, global = 3.91947e-09, cumulative = -5.39992e-06
DICPCG:  Solving for p_rgh, Initial residual = 0.000111182, Final residual = 5.1526e-06, No Iterations 8
time step continuity errors : sum local = 2.9355e-06, global = 2.51077e-09, cumulative = -5.39741e-06
DICPCG:  Solving for p_rgh, Initial residual = 5.30051e-06, Final residual = 9.37063e-08, No Iterations 50
time step continuity errors : sum local = 5.33827e-08, global = -1.65229e-08, cumulative = -5.41393e-06
ExecutionTime = 0.09 s  ClockTime = 0 s

Courant Number mean: 0.00416528 max: 0.0512405
Interface Courant Number mean: 7.71057e-05 max: 0.0392901
deltaT = 0.001
Time = 0.007

smoothSolver:  Solving for alpha.water, Initial residual = 0.00011459, Final residual = 6.64408e-09, No Iterations 1
Phase-1 volume fraction = 0.124752  Min(alpha.water) = 0  Max(alpha.water) = 1
MULES: Correcting alpha.water
MULES: Correcting alpha.water
Phase-1 volume fraction = 0.124752  Min(alpha.water) = -8.82223e-12  Max(alpha.water) = 1
DICPCG:  Solving for p_rgh, Initial residual = 0.00369726, Final residual = 0.000111019, No Iterations 1
time step continuity errors : sum local = 6.12191e-05, global = -3.54689e-08, cumulative = -5.4494e-06
DICPCG:  Solving for p_rgh, Initial residual = 0.000111792, Final residual = 5.36597e-06, No Iterations 8
time step continuity errors : sum local = 2.95177e-06, global = -3.40061e-08, cumulative = -5.48341e-06
DICPCG:  Solving for p_rgh, Initial residual = 5.56243e-06, Final residual = 9.73187e-08, No Iterations 71
time step continuity errors : sum local = 5.35312e-08, global = 2.67764e-09, cumulative = -5.48073e-06
ExecutionTime = 0.1 s  ClockTime = 0 s

Courant Number mean: 0.00484881 max: 0.0542214
Interface Courant Number mean: 9.73126e-05 max: 0.0448198
deltaT = 0.001
Time = 0.008

smoothSolver:  Solving for alpha.water, Initial residual = 0.000130974, Final residual = 9.95459e-09, No Iterations 1
Phase-1 volume fraction = 0.124752  Min(alpha.water) = 0  Max(alpha.water) = 1
MULES: Correcting alpha.water
MULES: Correcting alpha.water
Phase-1 volume fraction = 0.124752  Min(alpha.water) = -1.8233e-11  Max(alpha.water) = 1
DICPCG:  Solving for p_rgh, Initial residual = 0.00428903, Final residual = 0.000110736, No Iterations 1
time step continuity errors : sum local = 5.94129e-05, global = 2.2507e-08, cumulative = -5.45822e-06
DICPCG:  Solving for p_rgh, Initial residual = 0.000111446, Final residual = 5.34945e-06, No Iterations 8
time step continuity errors : sum local = 2.86209e-06, global = 2.13475e-08, cumulative = -5.43687e-06
DICPCG:  Solving for p_rgh, Initial residual = 5.60446e-06, Final residual = 9.74502e-08, No Iterations 43
time step continuity errors : sum local = 5.21356e-08, global = -1.39708e-09, cumulative = -5.43827e-06
ExecutionTime = 0.11 s  ClockTime = 0 s

Courant Number mean: 0.00553091 max: 0.0573688
Interface Courant Number mean: 0.000117593 max: 0.0499606
deltaT = 0.001
Time = 0.009

smoothSolver:  Solving for alpha.water, Initial residual = 0.000147415, Final residual = 5.51191e-14, No Iterations 2
Phase-1 volume fraction = 0.124752  Min(alpha.water) = 0  Max(alpha.water) = 1
MULES: Correcting alpha.water
MULES: Correcting alpha.water
Phase-1 volume fraction = 0.124752  Min(alpha.water) = -3.26043e-11  Max(alpha.water) = 1
DICPCG:  Solving for p_rgh, Initial residual = 0.00488997, Final residual = 0.000110138, No Iterations 1
time step continuity errors : sum local = 5.77835e-05, global = -4.80605e-09, cumulative = -5.44308e-06
DICPCG:  Solving for p_rgh, Initial residual = 0.00011081, Final residual = 5.45293e-06, No Iterations 8
time step continuity errors : sum local = 2.85205e-06, global = -5.37393e-09, cumulative = -5.44845e-06
DICPCG:  Solving for p_rgh, Initial residual = 5.774e-06, Final residual = 9.70957e-08, No Iterations 45
time step continuity errors : sum local = 5.07814e-08, global = -9.99001e-09, cumulative = -5.45844e-06
ExecutionTime = 0.12 s  ClockTime = 0 s

Courant Number mean: 0.00621061 max: 0.0605606
Interface Courant Number mean: 0.000139214 max: 0.0547834
deltaT = 0.001
Time = 0.01

smoothSolver:  Solving for alpha.water, Initial residual = 0.000163858, Final residual = 7.5067e-14, No Iterations 2
Phase-1 volume fraction = 0.124752  Min(alpha.water) = 0  Max(alpha.water) = 1
MULES: Correcting alpha.water
MULES: Correcting alpha.water
Phase-1 volume fraction = 0.124752  Min(alpha.water) = -5.35295e-11  Max(alpha.water) = 1
DICPCG:  Solving for p_rgh, Initial residual = 0.00549606, Final residual = 0.00010945, No Iterations 1
time step continuity errors : sum local = 5.63199e-05, global = -1.7982e-08, cumulative = -5.47642e-06
DICPCG:  Solving for p_rgh, Initial residual = 0.000110096, Final residual = 5.25898e-06, No Iterations 9
time step continuity errors : sum local = 2.69683e-06, global = -1.75925e-08, cumulative = -5.49402e-06
DICPCG:  Solving for p_rgh, Initial residual = 5.68206e-06, Final residual = 9.98816e-08, No Iterations 68
time step continuity errors : sum local = 5.12179e-08, global = 2.3434e-09, cumulative = -5.49167e-06
ExecutionTime = 0.14 s  ClockTime = 0 s

Courant Number mean: 0.00688921 max: 0.0655153
Interface Courant Number mean: 0.000160224 max: 0.0593586
deltaT = 0.001
Time = 0.011

smoothSolver:  Solving for alpha.water, Initial residual = 0.000180269, Final residual = 9.84844e-14, No Iterations 2
Phase-1 volume fraction = 0.124752  Min(alpha.water) = 0  Max(alpha.water) = 1
MULES: Correcting alpha.water
MULES: Correcting alpha.water
Phase-1 volume fraction = 0.124752  Min(alpha.water) = -8.27769e-11  Max(alpha.water) = 1
DICPCG:  Solving for p_rgh, Initial residual = 0.00610918, Final residual = 0.000108945, No Iterations 1
time step continuity errors : sum local = 5.5091e-05, global = 1.53066e-08, cumulative = -5.47637e-06
DICPCG:  Solving for p_rgh, Initial residual = 0.000109669, Final residual = 5.29231e-06, No Iterations 9
time step continuity errors : sum local = 2.6661e-06, global = 1.29768e-08, cumulative = -5.46339e-06
DICPCG:  Solving for p_rgh, Initial residual = 5.81168e-06, Final residual = 9.16287e-08, No Iterations 42
time step continuity errors : sum local = 4.61582e-08, global = -9.80024e-09, cumulative = -5.47319e-06
ExecutionTime = 0.15 s  ClockTime = 0 s

Courant Number mean: 0.0075668 max: 0.0704491
Interface Courant Number mean: 0.000182198 max: 0.0637351
deltaT = 0.001
Time = 0.012

smoothSolver:  Solving for alpha.water, Initial residual = 0.000196626, Final residual = 1.25088e-13, No Iterations 2
Phase-1 volume fraction = 0.124752  Min(alpha.water) = 0  Max(alpha.water) = 1
MULES: Correcting alpha.water
MULES: Correcting alpha.water
Phase-1 volume fraction = 0.124752  Min(alpha.water) = -1.21816e-10  Max(alpha.water) = 1
DICPCG:  Solving for p_rgh, Initial residual = 0.00673049, Final residual = 0.000108867, No Iterations 1
time step continuity errors : sum local = 5.4177e-05, global = -2.11178e-08, cumulative = -5.49431e-06
DICPCG:  Solving for p_rgh, Initial residual = 0.000109532, Final residual = 5.47292e-06, No Iterations 9
time step continuity errors : sum local = 2.71242e-06, global = -2.06932e-08, cumulative = -5.515e-06
DICPCG:  Solving for p_rgh, Initial residual = 6.09853e-06, Final residual = 9.15803e-08, No Iterations 71
time step continuity errors : sum local = 4.53865e-08, global = 2.18164e-09, cumulative = -5.51282e-06
ExecutionTime = 0.16 s  ClockTime = 0 s

Courant Number mean: 0.00824431 max: 0.0753505
Interface Courant Number mean: 0.000206155 max: 0.0679513
deltaT = 0.001
Time = 0.013

smoothSolver:  Solving for alpha.water, Initial residual = 0.00021292, Final residual = 1.54443e-13, No Iterations 2
Phase-1 volume fraction = 0.124752  Min(alpha.water) = 0  Max(alpha.water) = 1
MULES: Correcting alpha.water
MULES: Correcting alpha.water
Phase-1 volume fraction = 0.124752  Min(alpha.water) = -1.71889e-10  Max(alpha.water) = 1
DICPCG:  Solving for p_rgh, Initial residual = 0.0073613, Final residual = 0.000109312, No Iterations 1
time step continuity errors : sum local = 5.35908e-05, global = 1.51442e-08, cumulative = -5.49767e-06
DICPCG:  Solving for p_rgh, Initial residual = 0.000110009, Final residual = 5.46251e-06, No Iterations 9
time step continuity errors : sum local = 2.66627e-06, global = 1.4951e-08, cumulative = -5.48272e-06
DICPCG:  Solving for p_rgh, Initial residual = 6.1955e-06, Final residual = 9.83309e-08, No Iterations 42
time step continuity errors : sum local = 4.79943e-08, global = -1.0767e-08, cumulative = -5.49349e-06
ExecutionTime = 0.17 s  ClockTime = 0 s

Courant Number mean: 0.0089214 max: 0.0801554
Interface Courant Number mean: 0.000235187 max: 0.0720393
deltaT = 0.001
Time = 0.014

smoothSolver:  Solving for alpha.water, Initial residual = 0.000229139, Final residual = 1.85802e-13, No Iterations 2
Phase-1 volume fraction = 0.124752  Min(alpha.water) = 0  Max(alpha.water) = 1
MULES: Correcting alpha.water
MULES: Correcting alpha.water
Phase-1 volume fraction = 0.124752  Min(alpha.water) = -2.36423e-10  Max(alpha.water) = 1
DICPCG:  Solving for p_rgh, Initial residual = 0.00800485, Final residual = 0.000110632, No Iterations 1
time step continuity errors : sum local = 5.34647e-05, global = -2.3062e-08, cumulative = -5.51655e-06
DICPCG:  Solving for p_rgh, Initial residual = 0.000111382, Final residual = 5.5157e-06, No Iterations 10
time step continuity errors : sum local = 2.65296e-06, global = -2.24364e-08, cumulative = -5.53899e-06
DICPCG:  Solving for p_rgh, Initial residual = 6.46131e-06, Final residual = 9.6726e-08, No Iterations 68
time step continuity errors : sum local = 4.65233e-08, global = 1.96204e-09, cumulative = -5.53703e-06
ExecutionTime = 0.18 s  ClockTime = 0 s

Courant Number mean: 0.0095988 max: 0.084761
Interface Courant Number mean: 0.000255932 max: 0.0759026
deltaT = 0.001
Time = 0.015

smoothSolver:  Solving for alpha.water, Initial residual = 0.000245275, Final residual = 2.18256e-13, No Iterations 2
Phase-1 volume fraction = 0.124752  Min(alpha.water) = 0  Max(alpha.water) = 1
MULES: Correcting alpha.water
MULES: Correcting alpha.water
Phase-1 volume fraction = 0.124752  Min(alpha.water) = -2.78021e-10  Max(alpha.water) = 1
DICPCG:  Solving for p_rgh, Initial residual = 0.00866508, Final residual = 0.000113083, No Iterations 1
time step continuity errors : sum local = 5.38905e-05, global = 1.56781e-08, cumulative = -5.52135e-06
DICPCG:  Solving for p_rgh, Initial residual = 0.000113948, Final residual = 5.51142e-06, No Iterations 10
time step continuity errors : sum local = 2.61323e-06, global = 1.49932e-08, cumulative = -5.50636e-06
DICPCG:  Solving for p_rgh, Initial residual = 6.58986e-06, Final residual = 9.67613e-08, No Iterations 39
time step continuity errors : sum local = 4.58792e-08, global = -4.91089e-09, cumulative = -5.51127e-06
ExecutionTime = 0.19 s  ClockTime = 0 s

Courant Number mean: 0.0102758 max: 0.0889579
Interface Courant Number mean: 0.000274437 max: 0.0795905
deltaT = 0.001
Time = 0.016

smoothSolver:  Solving for alpha.water, Initial residual = 0.00026164, Final residual = 2.51322e-13, No Iterations 2
Phase-1 volume fraction = 0.124752  Min(alpha.water) = 0  Max(alpha.water) = 1
MULES: Correcting alpha.water
MULES: Correcting alpha.water
Phase-1 volume fraction = 0.124752  Min(alpha.water) = -2.90597e-10  Max(alpha.water) = 1
DICPCG:  Solving for p_rgh, Initial residual = 0.00932672, Final residual = 0.000114974, No Iterations 1
time step continuity errors : sum local = 5.4056e-05, global = -1.06725e-08, cumulative = -5.52194e-06
DICPCG:  Solving for p_rgh, Initial residual = 0.00011611, Final residual = 5.61375e-06, No Iterations 10
time step continuity errors : sum local = 2.62508e-06, global = -1.12407e-08, cumulative = -5.53318e-06
DICPCG:  Solving for p_rgh, Initial residual = 6.82451e-06, Final residual = 9.61966e-08, No Iterations 67
time step continuity errors : sum local = 4.49835e-08, global = 1.77094e-09, cumulative = -5.53141e-06
ExecutionTime = 0.21 s  ClockTime = 0 s

Courant Number mean: 0.0109539 max: 0.0939826
Interface Courant Number mean: 0.000300534 max: 0.0882147
deltaT = 0.001
Time = 0.017

smoothSolver:  Solving for alpha.water, Initial residual = 0.000279275, Final residual = 2.83777e-13, No Iterations 2
Phase-1 volume fraction = 0.124752  Min(alpha.water) = 0  Max(alpha.water) = 1
MULES: Correcting alpha.water
MULES: Correcting alpha.water
Phase-1 volume fraction = 0.124752  Min(alpha.water) = -2.58288e-10  Max(alpha.water) = 1
DICPCG:  Solving for p_rgh, Initial residual = 0.00981721, Final residual = 9.6997e-05, No Iterations 1
time step continuity errors : sum local = 4.50922e-05, global = 9.15923e-09, cumulative = -5.52225e-06
DICPCG:  Solving for p_rgh, Initial residual = 9.86076e-05, Final residual = 4.86043e-06, No Iterations 15
time step continuity errors : sum local = 2.24635e-06, global = 1.58887e-08, cumulative = -5.50636e-06
DICPCG:  Solving for p_rgh, Initial residual = 6.2211e-06, Final residual = 9.68731e-08, No Iterations 72
time step continuity errors : sum local = 4.47794e-08, global = 6.87113e-10, cumulative = -5.50567e-06
ExecutionTime = 0.22 s  ClockTime = 0 s

Courant Number mean: 0.0116516 max: 0.104448
Interface Courant Number mean: 0.000320143 max: 0.104448
deltaT = 0.001
Time = 0.018

smoothSolver:  Solving for alpha.water, Initial residual = 0.000297403, Final residual = 1.10262e-12, No Iterations 2
Phase-1 volume fraction = 0.124752  Min(alpha.water) = 0  Max(alpha.water) = 1
MULES: Correcting alpha.water
MULES: Correcting alpha.water
Phase-1 volume fraction = 0.124752  Min(alpha.water) = -1.72335e-10  Max(alpha.water) = 1
DICPCG:  Solving for p_rgh, Initial residual = 0.0104904, Final residual = 9.89585e-05, No Iterations 1
time step continuity errors : sum local = 4.53113e-05, global = 7.66655e-10, cumulative = -5.50491e-06
DICPCG:  Solving for p_rgh, Initial residual = 0.000100167, Final residual = 4.66062e-06, No Iterations 14
time step continuity errors : sum local = 2.12068e-06, global = 8.82512e-09, cumulative = -5.49608e-06
DICPCG:  Solving for p_rgh, Initial residual = 5.66069e-06, Final residual = 9.61606e-08, No Iterations 59
time step continuity errors : sum local = 4.37628e-08, global = 1.42023e-09, cumulative = -5.49466e-06
ExecutionTime = 0.23 s  ClockTime = 0 s

Courant Number mean: 0.0123432 max: 0.11459
Interface Courant Number mean: 0.000339678 max: 0.11459
deltaT = 0.001
Time = 0.019

smoothSolver:  Solving for alpha.water, Initial residual = 0.000314816, Final residual = 1.52391e-11, No Iterations 2
Phase-1 volume fraction = 0.124752  Min(alpha.water) = 0  Max(alpha.water) = 1
MULES: Correcting alpha.water
MULES: Correcting alpha.water
Phase-1 volume fraction = 0.124752  Min(alpha.water) = -2.53711e-11  Max(alpha.water) = 1
DICPCG:  Solving for p_rgh, Initial residual = 0.0111938, Final residual = 9.83177e-05, No Iterations 1
time step continuity errors : sum local = 4.43186e-05, global = 3.25519e-09, cumulative = -5.49141e-06
DICPCG:  Solving for p_rgh, Initial residual = 9.93882e-05, Final residual = 4.90294e-06, No Iterations 14
time step continuity errors : sum local = 2.19534e-06, global = 1.0126e-08, cumulative = -5.48128e-06
DICPCG:  Solving for p_rgh, Initial residual = 5.95628e-06, Final residual = 9.56769e-08, No Iterations 38
time step continuity errors : sum local = 4.28488e-08, global = -3.86845e-09, cumulative = -5.48515e-06
ExecutionTime = 0.24 s  ClockTime = 0 s

Courant Number mean: 0.0130313 max: 0.120975
Interface Courant Number mean: 0.000366466 max: 0.120975
deltaT = 0.001
Time = 0.02

smoothSolver:  Solving for alpha.water, Initial residual = 0.00033175, Final residual = 3.159e-11, No Iterations 2
Phase-1 volume fraction = 0.124752  Min(alpha.water) = 0  Max(alpha.water) = 1
MULES: Correcting alpha.water
MULES: Correcting alpha.water
Phase-1 volume fraction = 0.124752  Min(alpha.water) = -6.65948e-12  Max(alpha.water) = 1
DICPCG:  Solving for p_rgh, Initial residual = 0.0119117, Final residual = 9.93077e-05, No Iterations 1
time step continuity errors : sum local = 4.40489e-05, global = -7.89519e-09, cumulative = -5.49304e-06
DICPCG:  Solving for p_rgh, Initial residual = 0.000100669, Final residual = 4.25933e-06, No Iterations 15
time step continuity errors : sum local = 1.8758e-06, global = 9.43078e-09, cumulative = -5.48361e-06
DICPCG:  Solving for p_rgh, Initial residual = 5.98428e-06, Final residual = 9.5308e-08, No Iterations 31
time step continuity errors : sum local = 4.19838e-08, global = 5.61605e-10, cumulative = -5.48305e-06
ExecutionTime = 0.25 s  ClockTime = 0 s

Courant Number mean: 0.013716 max: 0.12541
Interface Courant Number mean: 0.000385508 max: 0.12541
deltaT = 0.001
Time = 0.021

smoothSolver:  Solving for alpha.water, Initial residual = 0.000348404, Final residual = 5.09338e-11, No Iterations 2
Phase-1 volume fraction = 0.124752  Min(alpha.water) = 0  Max(alpha.water) = 1
MULES: Correcting alpha.water
MULES: Correcting alpha.water
Phase-1 volume fraction = 0.124752  Min(alpha.water) = -8.94905e-12  Max(alpha.water) = 1
DICPCG:  Solving for p_rgh, Initial residual = 0.0126535, Final residual = 0.000101258, No Iterations 1
time step continuity errors : sum local = 4.41564e-05, global = 6.04425e-09, cumulative = -5.47701e-06
DICPCG:  Solving for p_rgh, Initial residual = 0.000102856, Final residual = 4.32718e-06, No Iterations 15
time step continuity errors : sum local = 1.87265e-06, global = 2.12495e-08, cumulative = -5.45576e-06
DICPCG:  Solving for p_rgh, Initial residual = 6.26522e-06, Final residual = 8.69493e-08, No Iterations 39
time step continuity errors : sum local = 3.76389e-08, global = 6.0179e-09, cumulative = -5.44974e-06
ExecutionTime = 0.26 s  ClockTime = 0 s

Courant Number mean: 0.0143976 max: 0.13177
Interface Courant Number mean: 0.000417279 max: 0.128325
deltaT = 0.001
Time = 0.022

smoothSolver:  Solving for alpha.water, Initial residual = 0.000364827, Final residual = 7.20417e-11, No Iterations 2
Phase-1 volume fraction = 0.124752  Min(alpha.water) = 0  Max(alpha.water) = 1
MULES: Correcting alpha.water
MULES: Correcting alpha.water
Phase-1 volume fraction = 0.124752  Min(alpha.water) = -1.15532e-11  Max(alpha.water) = 1
DICPCG:  Solving for p_rgh, Initial residual = 0.0134363, Final residual = 0.000107096, No Iterations 1
time step continuity errors : sum local = 4.58458e-05, global = 1.26099e-08, cumulative = -5.43713e-06
DICPCG:  Solving for p_rgh, Initial residual = 0.000109136, Final residual = 4.77677e-06, No Iterations 15
time step continuity errors : sum local = 2.02826e-06, global = 3.34169e-08, cumulative = -5.40371e-06
DICPCG:  Solving for p_rgh, Initial residual = 6.81026e-06, Final residual = 9.53386e-08, No Iterations 62
time step continuity errors : sum local = 4.04941e-08, global = 3.30185e-09, cumulative = -5.40041e-06
ExecutionTime = 0.27 s  ClockTime = 0 s

Courant Number mean: 0.0150724 max: 0.136935
Interface Courant Number mean: 0.00043618 max: 0.128579
deltaT = 0.001
Time = 0.023

smoothSolver:  Solving for alpha.water, Initial residual = 0.000380891, Final residual = 9.3836e-11, No Iterations 2
Phase-1 volume fraction = 0.124752  Min(alpha.water) = 0  Max(alpha.water) = 1
MULES: Correcting alpha.water
MULES: Correcting alpha.water
Phase-1 volume fraction = 0.124752  Min(alpha.water) = -2.03702e-11  Max(alpha.water) = 1
DICPCG:  Solving for p_rgh, Initial residual = 0.0142307, Final residual = 0.0001117, No Iterations 1
time step continuity errors : sum local = 4.68987e-05, global = 1.54173e-09, cumulative = -5.39887e-06
DICPCG:  Solving for p_rgh, Initial residual = 0.000113926, Final residual = 4.90626e-06, No Iterations 15
time step continuity errors : sum local = 2.04229e-06, global = 1.8681e-08, cumulative = -5.38019e-06
DICPCG:  Solving for p_rgh, Initial residual = 7.07388e-06, Final residual = 9.96192e-08, No Iterations 43
time step continuity errors : sum local = 4.1482e-08, global = 8.75608e-09, cumulative = -5.37143e-06
ExecutionTime = 0.29 s  ClockTime = 0 s

Courant Number mean: 0.0157433 max: 0.141269
Interface Courant Number mean: 0.000463188 max: 0.128627
deltaT = 0.001
Time = 0.024

smoothSolver:  Solving for alpha.water, Initial residual = 0.00039679, Final residual = 1.15707e-10, No Iterations 2
Phase-1 volume fraction = 0.124752  Min(alpha.water) = 0  Max(alpha.water) = 1
MULES: Correcting alpha.water
MULES: Correcting alpha.water
Phase-1 volume fraction = 0.124752  Min(alpha.water) = -1.8979e-10  Max(alpha.water) = 1
DICPCG:  Solving for p_rgh, Initial residual = 0.0150519, Final residual = 0.000118312, No Iterations 1
time step continuity errors : sum local = 4.86722e-05, global = 1.55204e-08, cumulative = -5.35591e-06
DICPCG:  Solving for p_rgh, Initial residual = 0.000120873, Final residual = 5.42963e-06, No Iterations 15
time step continuity errors : sum local = 2.21334e-06, global = 3.83221e-08, cumulative = -5.31759e-06
DICPCG:  Solving for p_rgh, Initial residual = 7.88499e-06, Final residual = 9.3462e-08, No Iterations 65
time step continuity errors : sum local = 3.81136e-08, global = 2.46266e-09, cumulative = -5.31513e-06
ExecutionTime = 0.3 s  ClockTime = 0 s

Courant Number mean: 0.0164085 max: 0.144709
Interface Courant Number mean: 0.000490126 max: 0.133381
deltaT = 0.001
Time = 0.025

smoothSolver:  Solving for alpha.water, Initial residual = 0.00041251, Final residual = 1.37098e-10, No Iterations 2
Phase-1 volume fraction = 0.124752  Min(alpha.water) = 0  Max(alpha.water) = 1
MULES: Correcting alpha.water
MULES: Correcting alpha.water
Phase-1 volume fraction = 0.124752  Min(alpha.water) = -5.06788e-10  Max(alpha.water) = 1
DICPCG:  Solving for p_rgh, Initial residual = 0.0158899, Final residual = 0.000127806, No Iterations 1
time step continuity errors : sum local = 5.14646e-05, global = -2.44631e-09, cumulative = -5.31757e-06
DICPCG:  Solving for p_rgh, Initial residual = 0.000130795, Final residual = 5.82778e-06, No Iterations 15
time step continuity errors : sum local = 2.32414e-06, global = 1.97431e-08, cumulative = -5.29783e-06
DICPCG:  Solving for p_rgh, Initial residual = 8.5527e-06, Final residual = 9.74865e-08, No Iterations 40
time step continuity errors : sum local = 3.88946e-08, global = 6.89639e-09, cumulative = -5.29093e-06
ExecutionTime = 0.31 s  ClockTime = 0 s

Courant Number mean: 0.0170698 max: 0.147234
Interface Courant Number mean: 0.000517141 max: 0.1374
deltaT = 0.001
Time = 0.026

smoothSolver:  Solving for alpha.water, Initial residual = 0.000428037, Final residual = 1.57543e-10, No Iterations 2
Phase-1 volume fraction = 0.124752  Min(alpha.water) = 0  Max(alpha.water) = 1
MULES: Correcting alpha.water
MULES: Correcting alpha.water
Phase-1 volume fraction = 0.124752  Min(alpha.water) = -8.02935e-10  Max(alpha.water) = 1
DICPCG:  Solving for p_rgh, Initial residual = 0.0166823, Final residual = 0.00013753, No Iterations 1
time step continuity errors : sum local = 5.41587e-05, global = 1.22894e-08, cumulative = -5.27864e-06
DICPCG:  Solving for p_rgh, Initial residual = 0.000140714, Final residual = 6.51086e-06, No Iterations 15
time step continuity errors : sum local = 2.53791e-06, global = 3.89416e-08, cumulative = -5.2397e-06
DICPCG:  Solving for p_rgh, Initial residual = 9.68733e-06, Final residual = 9.59697e-08, No Iterations 67
time step continuity errors : sum local = 3.74267e-08, global = 3.3969e-09, cumulative = -5.23631e-06
ExecutionTime = 0.32 s  ClockTime = 0 s

Courant Number mean: 0.0177273 max: 0.14929
Interface Courant Number mean: 0.000535444 max: 0.140929
deltaT = 0.001
Time = 0.027

smoothSolver:  Solving for alpha.water, Initial residual = 0.000443967, Final residual = 1.7632e-10, No Iterations 2
Phase-1 volume fraction = 0.124752  Min(alpha.water) = 0  Max(alpha.water) = 1
MULES: Correcting alpha.water
MULES: Correcting alpha.water
Phase-1 volume fraction = 0.124752  Min(alpha.water) = -1.07015e-09  Max(alpha.water) = 1
DICPCG:  Solving for p_rgh, Initial residual = 0.0173983, Final residual = 0.000146882, No Iterations 1
time step continuity errors : sum local = 5.65059e-05, global = 9.75208e-10, cumulative = -5.23533e-06
DICPCG:  Solving for p_rgh, Initial residual = 0.000150486, Final residual = 7.21612e-06, No Iterations 15
time step continuity errors : sum local = 2.74659e-06, global = 2.52886e-08, cumulative = -5.21004e-06
DICPCG:  Solving for p_rgh, Initial residual = 1.07054e-05, Final residual = 9.40507e-08, No Iterations 42
time step continuity errors : sum local = 3.5818e-08, global = -8.64874e-09, cumulative = -5.21869e-06
ExecutionTime = 0.33 s  ClockTime = 0 s

Courant Number mean: 0.0183843 max: 0.154057
Interface Courant Number mean: 0.000566511 max: 0.14413
deltaT = 0.001
Time = 0.028

smoothSolver:  Solving for alpha.water, Initial residual = 0.000459459, Final residual = 2.08749e-10, No Iterations 2
Phase-1 volume fraction = 0.124752  Min(alpha.water) = 0  Max(alpha.water) = 1
MULES: Correcting alpha.water
MULES: Correcting alpha.water
Phase-1 volume fraction = 0.124752  Min(alpha.water) = -1.30343e-09  Max(alpha.water) = 1
DICPCG:  Solving for p_rgh, Initial residual = 0.0180539, Final residual = 0.000156704, No Iterations 1
time step continuity errors : sum local = 5.88417e-05, global = -1.94064e-08, cumulative = -5.2381e-06
DICPCG:  Solving for p_rgh, Initial residual = 0.000161019, Final residual = 7.88328e-06, No Iterations 15
time step continuity errors : sum local = 2.9278e-06, global = 1.34418e-08, cumulative = -5.22466e-06
DICPCG:  Solving for p_rgh, Initial residual = 1.1721e-05, Final residual = 8.77385e-08, No Iterations 69
time step continuity errors : sum local = 3.26061e-08, global = 1.27676e-09, cumulative = -5.22338e-06
ExecutionTime = 0.35 s  ClockTime = 0 s

Courant Number mean: 0.0190437 max: 0.159845
Interface Courant Number mean: 0.000594444 max: 0.146727
deltaT = 0.001
Time = 0.029

smoothSolver:  Solving for alpha.water, Initial residual = 0.000474729, Final residual = 2.80537e-10, No Iterations 2
Phase-1 volume fraction = 0.124752  Min(alpha.water) = 0  Max(alpha.water) = 1
MULES: Correcting alpha.water
MULES: Correcting alpha.water
Phase-1 volume fraction = 0.124752  Min(alpha.water) = -1.61667e-09  Max(alpha.water) = 1
DICPCG:  Solving for p_rgh, Initial residual = 0.0186601, Final residual = 0.000167452, No Iterations 1
time step continuity errors : sum local = 6.133e-05, global = 1.24082e-08, cumulative = -5.21097e-06
DICPCG:  Solving for p_rgh, Initial residual = 0.000172005, Final residual = 8.21496e-06, No Iterations 15
time step continuity errors : sum local = 2.97503e-06, global = 4.41456e-08, cumulative = -5.16682e-06
DICPCG:  Solving for p_rgh, Initial residual = 1.23835e-05, Final residual = 9.17674e-08, No Iterations 40
time step continuity errors : sum local = 3.32563e-08, global = -4.31415e-09, cumulative = -5.17114e-06
ExecutionTime = 0.36 s  ClockTime = 0 s

Courant Number mean: 0.0197044 max: 0.164468
Interface Courant Number mean: 0.000643355 max: 0.148188
deltaT = 0.001
Time = 0.03

smoothSolver:  Solving for alpha.water, Initial residual = 0.000490249, Final residual = 4.1232e-10, No Iterations 2
Phase-1 volume fraction = 0.124752  Min(alpha.water) = 0  Max(alpha.water) = 1
MULES: Correcting alpha.water
MULES: Correcting alpha.water
Phase-1 volume fraction = 0.124752  Min(alpha.water) = -1.77302e-09  Max(alpha.water) = 1
DICPCG:  Solving for p_rgh, Initial residual = 0.0192139, Final residual = 0.000178756, No Iterations 1
time step continuity errors : sum local = 6.38058e-05, global = -8.68704e-09, cumulative = -5.17983e-06
DICPCG:  Solving for p_rgh, Initial residual = 0.000183466, Final residual = 6.97005e-06, No Iterations 16
time step continuity errors : sum local = 2.45926e-06, global = 4.95703e-08, cumulative = -5.13026e-06
DICPCG:  Solving for p_rgh, Initial residual = 1.20799e-05, Final residual = 9.65549e-08, No Iterations 69
time step continuity errors : sum local = 3.40947e-08, global = 9.00983e-10, cumulative = -5.12935e-06
ExecutionTime = 0.37 s  ClockTime = 0 s

Courant Number mean: 0.0203664 max: 0.169434
Interface Courant Number mean: 0.000713504 max: 0.156142
deltaT = 0.001
Time = 0.031

smoothSolver:  Solving for alpha.water, Initial residual = 0.000506101, Final residual = 5.70102e-10, No Iterations 2
Phase-1 volume fraction = 0.124752  Min(alpha.water) = 0  Max(alpha.water) = 1
MULES: Correcting alpha.water
MULES: Correcting alpha.water
Phase-1 volume fraction = 0.124752  Min(alpha.water) = -1.6531e-09  Max(alpha.water) = 1
DICPCG:  Solving for p_rgh, Initial residual = 0.0197177, Final residual = 0.000191002, No Iterations 1
time step continuity errors : sum local = 6.63933e-05, global = 7.29317e-09, cumulative = -5.12206e-06
DICPCG:  Solving for p_rgh, Initial residual = 0.000196569, Final residual = 7.25993e-06, No Iterations 16
time step continuity errors : sum local = 2.4939e-06, global = 6.80127e-08, cumulative = -5.05405e-06
DICPCG:  Solving for p_rgh, Initial residual = 1.29662e-05, Final residual = 9.58108e-08, No Iterations 47
time step continuity errors : sum local = 3.29411e-08, global = -1.1896e-08, cumulative = -5.06594e-06
ExecutionTime = 0.38 s  ClockTime = 0 s

Courant Number mean: 0.0210286 max: 0.174985
Interface Courant Number mean: 0.000811709 max: 0.166272
deltaT = 0.001
Time = 0.032

smoothSolver:  Solving for alpha.water, Initial residual = 0.000521459, Final residual = 7.26449e-10, No Iterations 2
Phase-1 volume fraction = 0.124752  Min(alpha.water) = 0  Max(alpha.water) = 1
MULES: Correcting alpha.water
MULES: Correcting alpha.water
Phase-1 volume fraction = 0.124752  Min(alpha.water) = -1.59491e-09  Max(alpha.water) = 1
DICPCG:  Solving for p_rgh, Initial residual = 0.0201554, Final residual = 0.000203651, No Iterations 1
time step continuity errors : sum local = 6.88865e-05, global = -2.33701e-08, cumulative = -5.08932e-06
DICPCG:  Solving for p_rgh, Initial residual = 0.000209944, Final residual = 7.87642e-06, No Iterations 16
time step continuity errors : sum local = 2.63243e-06, global = 5.07078e-08, cumulative = -5.03861e-06
DICPCG:  Solving for p_rgh, Initial residual = 1.41311e-05, Final residual = 9.16005e-08, No Iterations 70
time step continuity errors : sum local = 3.06419e-08, global = 5.57551e-10, cumulative = -5.03805e-06
ExecutionTime = 0.39 s  ClockTime = 0 s

Courant Number mean: 0.021692 max: 0.179964
Interface Courant Number mean: 0.000845293 max: 0.175091
deltaT = 0.001
Time = 0.033

smoothSolver:  Solving for alpha.water, Initial residual = 0.000537213, Final residual = 8.79652e-10, No Iterations 2
Phase-1 volume fraction = 0.124752  Min(alpha.water) = 0  Max(alpha.water) = 1
MULES: Correcting alpha.water
MULES: Correcting alpha.water
Phase-1 volume fraction = 0.124752  Min(alpha.water) = -1.48036e-09  Max(alpha.water) = 1
DICPCG:  Solving for p_rgh, Initial residual = 0.0205046, Final residual = 0.000214534, No Iterations 1
time step continuity errors : sum local = 7.05383e-05, global = 1.44026e-08, cumulative = -5.02365e-06
DICPCG:  Solving for p_rgh, Initial residual = 0.000220818, Final residual = 1.08841e-05, No Iterations 15
time step continuity errors : sum local = 3.53539e-06, global = 6.24511e-08, cumulative = -4.9612e-06
DICPCG:  Solving for p_rgh, Initial residual = 1.67941e-05, Final residual = 9.92416e-08, No Iterations 41
time step continuity errors : sum local = 3.22656e-08, global = -6.31738e-09, cumulative = -4.96751e-06
ExecutionTime = 0.4 s  ClockTime = 0 s

Courant Number mean: 0.0223554 max: 0.188097
Interface Courant Number mean: 0.000867806 max: 0.181391
deltaT = 0.001
Time = 0.034

smoothSolver:  Solving for alpha.water, Initial residual = 0.000552998, Final residual = 1.00402e-09, No Iterations 2
Phase-1 volume fraction = 0.124752  Min(alpha.water) = 0  Max(alpha.water) = 1
MULES: Correcting alpha.water
MULES: Correcting alpha.water
Phase-1 volume fraction = 0.124752  Min(alpha.water) = -1.42685e-09  Max(alpha.water) = 1
DICPCG:  Solving for p_rgh, Initial residual = 0.0207587, Final residual = 0.000225579, No Iterations 1
time step continuity errors : sum local = 7.20543e-05, global = -1.20611e-08, cumulative = -4.97957e-06
DICPCG:  Solving for p_rgh, Initial residual = 0.000231881, Final residual = 9.01282e-06, No Iterations 16
time step continuity errors : sum local = 2.84381e-06, global = 7.56343e-08, cumulative = -4.90394e-06
DICPCG:  Solving for p_rgh, Initial residual = 1.60918e-05, Final residual = 9.44952e-08, No Iterations 70
time step continuity errors : sum local = 2.98474e-08, global = -1.26334e-10, cumulative = -4.90407e-06
ExecutionTime = 0.41 s  ClockTime = 0 s

Courant Number mean: 0.0230177 max: 0.19635
Interface Courant Number mean: 0.00091683 max: 0.184758
deltaT = 0.001
Time = 0.035

smoothSolver:  Solving for alpha.water, Initial residual = 0.000569496, Final residual = 1.08916e-09, No Iterations 2
Phase-1 volume fraction = 0.124752  Min(alpha.water) = 0  Max(alpha.water) = 1
MULES: Correcting alpha.water
MULES: Correcting alpha.water
Phase-1 volume fraction = 0.124752  Min(alpha.water) = -1.33779e-09  Max(alpha.water) = 1
DICPCG:  Solving for p_rgh, Initial residual = 0.0209417, Final residual = 0.000240164, No Iterations 1
time step continuity errors : sum local = 7.44985e-05, global = 7.50451e-09, cumulative = -4.89656e-06
DICPCG:  Solving for p_rgh, Initial residual = 0.000246589, Final residual = 9.33187e-06, No Iterations 16
time step continuity errors : sum local = 2.85951e-06, global = 1.04979e-07, cumulative = -4.79158e-06
DICPCG:  Solving for p_rgh, Initial residual = 1.71409e-05, Final residual = 9.91011e-08, No Iterations 43
time step continuity errors : sum local = 3.04013e-08, global = -6.33463e-09, cumulative = -4.79792e-06
ExecutionTime = 0.43 s  ClockTime = 0 s

Courant Number mean: 0.0236806 max: 0.203361
Interface Courant Number mean: 0.000941788 max: 0.186375
deltaT = 0.001
Time = 0.036

smoothSolver:  Solving for alpha.water, Initial residual = 0.000585281, Final residual = 1.17646e-09, No Iterations 2
Phase-1 volume fraction = 0.124752  Min(alpha.water) = 0  Max(alpha.water) = 1
MULES: Correcting alpha.water
MULES: Correcting alpha.water
Phase-1 volume fraction = 0.124752  Min(alpha.water) = -3.83397e-10  Max(alpha.water) = 1
DICPCG:  Solving for p_rgh, Initial residual = 0.0210367, Final residual = 0.000259332, No Iterations 1
time step continuity errors : sum local = 7.81079e-05, global = -1.1462e-08, cumulative = -4.80938e-06
DICPCG:  Solving for p_rgh, Initial residual = 0.000266646, Final residual = 1.02491e-05, No Iterations 16
time step continuity errors : sum local = 3.04971e-06, global = 9.74329e-08, cumulative = -4.71195e-06
DICPCG:  Solving for p_rgh, Initial residual = 1.86789e-05, Final residual = 9.26906e-08, No Iterations 71
time step continuity errors : sum local = 2.76145e-08, global = -6.24052e-10, cumulative = -4.71257e-06
ExecutionTime = 0.44 s  ClockTime = 0 s

Courant Number mean: 0.0243462 max: 0.209476
Interface Courant Number mean: 0.000976364 max: 0.186746
deltaT = 0.001
Time = 0.037

smoothSolver:  Solving for alpha.water, Initial residual = 0.000601158, Final residual = 1.32518e-09, No Iterations 2
Phase-1 volume fraction = 0.124752  Min(alpha.water) = 0  Max(alpha.water) = 1
MULES: Correcting alpha.water
MULES: Correcting alpha.water
Phase-1 volume fraction = 0.124752  Min(alpha.water) = -1.24543e-10  Max(alpha.water) = 1
DICPCG:  Solving for p_rgh, Initial residual = 0.0210098, Final residual = 0.000287122, No Iterations 1
time step continuity errors : sum local = 8.40318e-05, global = 6.59989e-09, cumulative = -4.70597e-06
DICPCG:  Solving for p_rgh, Initial residual = 0.000295669, Final residual = 1.43577e-05, No Iterations 15
time step continuity errors : sum local = 4.15377e-06, global = 8.29449e-08, cumulative = -4.62303e-06
DICPCG:  Solving for p_rgh, Initial residual = 2.28628e-05, Final residual = 8.99624e-08, No Iterations 72
time step continuity errors : sum local = 2.60574e-08, global = -7.53205e-10, cumulative = -4.62378e-06
ExecutionTime = 0.45 s  ClockTime = 0 s

Courant Number mean: 0.0250166 max: 0.212877
Interface Courant Number mean: 0.00101336 max: 0.185202
deltaT = 0.001
Time = 0.038

smoothSolver:  Solving for alpha.water, Initial residual = 0.000617769, Final residual = 1.58885e-09, No Iterations 2
Phase-1 volume fraction = 0.124752  Min(alpha.water) = 0  Max(alpha.water) = 1
MULES: Correcting alpha.water
MULES: Correcting alpha.water
Phase-1 volume fraction = 0.124752  Min(alpha.water) = -5.84248e-11  Max(alpha.water) = 1
DICPCG:  Solving for p_rgh, Initial residual = 0.0207723, Final residual = 0.000326707, No Iterations 1
time step continuity errors : sum local = 9.30493e-05, global = 5.8963e-10, cumulative = -4.62319e-06
DICPCG:  Solving for p_rgh, Initial residual = 0.000335853, Final residual = 1.62523e-05, No Iterations 15
time step continuity errors : sum local = 4.57654e-06, global = 8.66894e-08, cumulative = -4.5365e-06
DICPCG:  Solving for p_rgh, Initial residual = 2.6157e-05, Final residual = 9.14771e-08, No Iterations 73
time step continuity errors : sum local = 2.57908e-08, global = -5.1165e-10, cumulative = -4.53701e-06
ExecutionTime = 0.46 s  ClockTime = 0 s

Courant Number mean: 0.0256925 max: 0.214448
Interface Courant Number mean: 0.00103379 max: 0.196962
deltaT = 0.001
Time = 0.039

smoothSolver:  Solving for alpha.water, Initial residual = 0.000635343, Final residual = 1.98624e-09, No Iterations 2
Phase-1 volume fraction = 0.124752  Min(alpha.water) = 0  Max(alpha.water) = 1
MULES: Correcting alpha.water
MULES: Correcting alpha.water
Phase-1 volume fraction = 0.124752  Min(alpha.water) = -1.21843e-09  Max(alpha.water) = 1
DICPCG:  Solving for p_rgh, Initial residual = 0.0212607, Final residual = 0.00038731, No Iterations 1
time step continuity errors : sum local = 0.000108622, global = 1.06877e-09, cumulative = -4.53594e-06
DICPCG:  Solving for p_rgh, Initial residual = 0.000398864, Final residual = 1.9905e-05, No Iterations 9
time step continuity errors : sum local = 5.51654e-06, global = 1.16291e-09, cumulative = -4.53478e-06
DICPCG:  Solving for p_rgh, Initial residual = 3.07988e-05, Final residual = 9.12404e-08, No Iterations 82
time step continuity errors : sum local = 2.52946e-08, global = -1.51211e-09, cumulative = -4.53629e-06
ExecutionTime = 0.48 s  ClockTime = 0 s

Courant Number mean: 0.026369 max: 0.216699
Interface Courant Number mean: 0.00108481 max: 0.204266
deltaT = 0.001
Time = 0.04

smoothSolver:  Solving for alpha.water, Initial residual = 0.000652434, Final residual = 2.37455e-09, No Iterations 2
Phase-1 volume fraction = 0.124752  Min(alpha.water) = 0  Max(alpha.water) = 1
MULES: Correcting alpha.water
MULES: Correcting alpha.water
Phase-1 volume fraction = 0.124752  Min(alpha.water) = -3.39723e-09  Max(alpha.water) = 1
DICPCG:  Solving for p_rgh, Initial residual = 0.0211188, Final residual = 0.000424856, No Iterations 1
time step continuity errors : sum local = 0.000115421, global = -6.66378e-10, cumulative = -4.53696e-06
DICPCG:  Solving for p_rgh, Initial residual = 0.00043757, Final residual = 2.17511e-05, No Iterations 8
time step continuity errors : sum local = 5.84213e-06, global = -3.26442e-10, cumulative = -4.53728e-06
DICPCG:  Solving for p_rgh, Initial residual = 3.29436e-05, Final residual = 9.83963e-08, No Iterations 86
time step continuity errors : sum local = 2.64334e-08, global = -3.93751e-11, cumulative = -4.53732e-06
ExecutionTime = 0.49 s  ClockTime = 0 s

Courant Number mean: 0.0270508 max: 0.222427
Interface Courant Number mean: 0.00109629 max: 0.21016
deltaT = 0.001
Time = 0.041

smoothSolver:  Solving for alpha.water, Initial residual = 0.000668969, Final residual = 2.74149e-09, No Iterations 2
Phase-1 volume fraction = 0.124752  Min(alpha.water) = 0  Max(alpha.water) = 1
MULES: Correcting alpha.water
MULES: Correcting alpha.water
Phase-1 volume fraction = 0.124752  Min(alpha.water) = -5.34907e-09  Max(alpha.water) = 1
DICPCG:  Solving for p_rgh, Initial residual = 0.0209685, Final residual = 0.000475124, No Iterations 1
time step continuity errors : sum local = 0.000125601, global = 3.25938e-09, cumulative = -4.53406e-06
DICPCG:  Solving for p_rgh, Initial residual = 0.000490077, Final residual = 2.348e-05, No Iterations 7
time step continuity errors : sum local = 6.13919e-06, global = 2.26965e-09, cumulative = -4.5318e-06
DICPCG:  Solving for p_rgh, Initial residual = 3.64623e-05, Final residual = 9.04458e-08, No Iterations 87
time step continuity errors : sum local = 2.36506e-08, global = 4.2438e-10, cumulative = -4.53137e-06
ExecutionTime = 0.5 s  ClockTime = 0 s

Courant Number mean: 0.0277304 max: 0.231971
Interface Courant Number mean: 0.00117211 max: 0.214175
deltaT = 0.001
Time = 0.042

smoothSolver:  Solving for alpha.water, Initial residual = 0.000685925, Final residual = 3.06216e-09, No Iterations 2
Phase-1 volume fraction = 0.124752  Min(alpha.water) = 0  Max(alpha.water) = 1
MULES: Correcting alpha.water
MULES: Correcting alpha.water
Phase-1 volume fraction = 0.124752  Min(alpha.water) = -7.18843e-09  Max(alpha.water) = 1
DICPCG:  Solving for p_rgh, Initial residual = 0.0207559, Final residual = 0.000532073, No Iterations 1
time step continuity errors : sum local = 0.000137124, global = 2.74953e-09, cumulative = -4.52862e-06
DICPCG:  Solving for p_rgh, Initial residual = 0.000548107, Final residual = 2.51815e-05, No Iterations 7
time step continuity errors : sum local = 6.42292e-06, global = 3.30049e-09, cumulative = -4.52532e-06
DICPCG:  Solving for p_rgh, Initial residual = 3.96124e-05, Final residual = 9.38388e-08, No Iterations 88
time step continuity errors : sum local = 2.39363e-08, global = 7.40671e-10, cumulative = -4.52458e-06
ExecutionTime = 0.52 s  ClockTime = 1 s

Courant Number mean: 0.0284074 max: 0.239728
Interface Courant Number mean: 0.00116982 max: 0.216344
deltaT = 0.001
Time = 0.043

smoothSolver:  Solving for alpha.water, Initial residual = 0.000702443, Final residual = 3.34066e-09, No Iterations 2
Phase-1 volume fraction = 0.124752  Min(alpha.water) = 0  Max(alpha.water) = 1
MULES: Correcting alpha.water
MULES: Correcting alpha.water
Phase-1 volume fraction = 0.124752  Min(alpha.water) = -6.47936e-09  Max(alpha.water) = 1
DICPCG:  Solving for p_rgh, Initial residual = 0.0204512, Final residual = 0.00059678, No Iterations 1
time step continuity errors : sum local = 0.00015031, global = 2.89669e-09, cumulative = -4.52168e-06
DICPCG:  Solving for p_rgh, Initial residual = 0.000615798, Final residual = 3.03027e-05, No Iterations 6
time step continuity errors : sum local = 7.56258e-06, global = 2.84683e-09, cumulative = -4.51884e-06
DICPCG:  Solving for p_rgh, Initial residual = 4.67103e-05, Final residual = 9.53147e-08, No Iterations 90
time step continuity errors : sum local = 2.37868e-08, global = 1.25082e-09, cumulative = -4.51759e-06
ExecutionTime = 0.53 s  ClockTime = 1 s

Courant Number mean: 0.029081 max: 0.244843
Interface Courant Number mean: 0.00120344 max: 0.214681
deltaT = 0.001
Time = 0.044

smoothSolver:  Solving for alpha.water, Initial residual = 0.000717449, Final residual = 3.60132e-09, No Iterations 2
Phase-1 volume fraction = 0.124752  Min(alpha.water) = 0  Max(alpha.water) = 1
MULES: Correcting alpha.water
MULES: Correcting alpha.water
Phase-1 volume fraction = 0.124752  Min(alpha.water) = -4.33712e-09  Max(alpha.water) = 1
DICPCG:  Solving for p_rgh, Initial residual = 0.0193815, Final residual = 0.000576955, No Iterations 1
time step continuity errors : sum local = 0.000143877, global = 3.28451e-09, cumulative = -4.5143e-06
DICPCG:  Solving for p_rgh, Initial residual = 0.000594368, Final residual = 2.95293e-05, No Iterations 7
time step continuity errors : sum local = 7.30376e-06, global = 2.87791e-09, cumulative = -4.51142e-06
DICPCG:  Solving for p_rgh, Initial residual = 4.32728e-05, Final residual = 9.09255e-08, No Iterations 92
time step continuity errors : sum local = 2.24933e-08, global = 2.78956e-10, cumulative = -4.51114e-06
ExecutionTime = 0.55 s  ClockTime = 1 s

Courant Number mean: 0.0297699 max: 0.245671
Interface Courant Number mean: 0.00126311 max: 0.217656
deltaT = 0.001
Time = 0.045

smoothSolver:  Solving for alpha.water, Initial residual = 0.000732363, Final residual = 3.90975e-09, No Iterations 2
Phase-1 volume fraction = 0.124752  Min(alpha.water) = 0  Max(alpha.water) = 1
MULES: Correcting alpha.water
MULES: Correcting alpha.water
Phase-1 volume fraction = 0.124752  Min(alpha.water) = -7.77236e-09  Max(alpha.water) = 1
DICPCG:  Solving for p_rgh, Initial residual = 0.0200185, Final residual = 0.000609994, No Iterations 1
time step continuity errors : sum local = 0.000153296, global = 1.49916e-09, cumulative = -4.50965e-06
DICPCG:  Solving for p_rgh, Initial residual = 0.000631517, Final residual = 2.91969e-05, No Iterations 7
time step continuity errors : sum local = 7.27561e-06, global = 1.0554e-09, cumulative = -4.50859e-06
DICPCG:  Solving for p_rgh, Initial residual = 4.46536e-05, Final residual = 9.45626e-08, No Iterations 90
time step continuity errors : sum local = 2.35679e-08, global = 1.31298e-09, cumulative = -4.50728e-06
ExecutionTime = 0.56 s  ClockTime = 1 s

Courant Number mean: 0.030451 max: 0.244969
Interface Courant Number mean: 0.00127905 max: 0.223896
deltaT = 0.001
Time = 0.046

smoothSolver:  Solving for alpha.water, Initial residual = 0.00074774, Final residual = 4.38857e-09, No Iterations 2
Phase-1 volume fraction = 0.124752  Min(alpha.water) = 0  Max(alpha.water) = 1
MULES: Correcting alpha.water
MULES: Correcting alpha.water
Phase-1 volume fraction = 0.124752  Min(alpha.water) = -1.43415e-08  Max(alpha.water) = 1
DICPCG:  Solving for p_rgh, Initial residual = 0.0187771, Final residual = 0.000692694, No Iterations 1
time step continuity errors : sum local = 0.00017179, global = 3.97562e-09, cumulative = -4.5033e-06
DICPCG:  Solving for p_rgh, Initial residual = 0.000718408, Final residual = 3.28178e-05, No Iterations 7
time step continuity errors : sum local = 8.09044e-06, global = 3.96906e-09, cumulative = -4.49933e-06
DICPCG:  Solving for p_rgh, Initial residual = 5.07431e-05, Final residual = 9.44529e-08, No Iterations 93
time step continuity errors : sum local = 2.32893e-08, global = 1.41836e-09, cumulative = -4.49791e-06
ExecutionTime = 0.57 s  ClockTime = 1 s

Courant Number mean: 0.0311239 max: 0.245309
Interface Courant Number mean: 0.00128985 max: 0.228713
deltaT = 0.001
Time = 0.047

smoothSolver:  Solving for alpha.water, Initial residual = 0.000762401, Final residual = 4.8778e-09, No Iterations 2
Phase-1 volume fraction = 0.124752  Min(alpha.water) = 0  Max(alpha.water) = 1
MULES: Correcting alpha.water
MULES: Correcting alpha.water
Phase-1 volume fraction = 0.124752  Min(alpha.water) = -3.94485e-09  Max(alpha.water) = 1
DICPCG:  Solving for p_rgh, Initial residual = 0.0182021, Final residual = 0.000733047, No Iterations 1
time step continuity errors : sum local = 0.000185812, global = 3.40393e-09, cumulative = -4.49451e-06
DICPCG:  Solving for p_rgh, Initial residual = 0.000760685, Final residual = 3.38767e-05, No Iterations 7
time step continuity errors : sum local = 8.54719e-06, global = 3.18543e-09, cumulative = -4.49132e-06
DICPCG:  Solving for p_rgh, Initial residual = 5.34879e-05, Final residual = 9.66639e-08, No Iterations 94
time step continuity errors : sum local = 2.43906e-08, global = 1.92655e-09, cumulative = -4.4894e-06
ExecutionTime = 0.59 s  ClockTime = 1 s

Courant Number mean: 0.0317842 max: 0.255126
Interface Courant Number mean: 0.00128 max: 0.2322
deltaT = 0.001
Time = 0.048

smoothSolver:  Solving for alpha.water, Initial residual = 0.000778627, Final residual = 5.43598e-09, No Iterations 2
Phase-1 volume fraction = 0.124752  Min(alpha.water) = 0  Max(alpha.water) = 1
MULES: Correcting alpha.water
MULES: Correcting alpha.water
Phase-1 volume fraction = 0.124752  Min(alpha.water) = -5.57319e-10  Max(alpha.water) = 1
DICPCG:  Solving for p_rgh, Initial residual = 0.0202695, Final residual = 0.000601727, No Iterations 1
time step continuity errors : sum local = 0.000170644, global = 3.87686e-09, cumulative = -4.48552e-06
DICPCG:  Solving for p_rgh, Initial residual = 0.000624884, Final residual = 3.1185e-05, No Iterations 7
time step continuity errors : sum local = 8.77797e-06, global = 3.55802e-09, cumulative = -4.48196e-06
DICPCG:  Solving for p_rgh, Initial residual = 4.58612e-05, Final residual = 9.75312e-08, No Iterations 64
time step continuity errors : sum local = 2.74552e-08, global = -5.53953e-09, cumulative = -4.4875e-06
ExecutionTime = 0.6 s  ClockTime = 1 s

Courant Number mean: 0.0324417 max: 0.262998
Interface Courant Number mean: 0.00119943 max: 0.234485
deltaT = 0.001
Time = 0.049

smoothSolver:  Solving for alpha.water, Initial residual = 0.000792992, Final residual = 5.98946e-09, No Iterations 2
Phase-1 volume fraction = 0.124752  Min(alpha.water) = -7.98198e-13  Max(alpha.water) = 1
MULES: Correcting alpha.water
MULES: Correcting alpha.water
Phase-1 volume fraction = 0.124752  Min(alpha.water) = -8.49402e-11  Max(alpha.water) = 1
DICPCG:  Solving for p_rgh, Initial residual = 0.0223684, Final residual = 0.000393301, No Iterations 1
time step continuity errors : sum local = 0.00012655, global = -1.10956e-08, cumulative = -4.4986e-06
DICPCG:  Solving for p_rgh, Initial residual = 0.00041132, Final residual = 2.04772e-05, No Iterations 9
time step continuity errors : sum local = 6.49837e-06, global = -1.01948e-08, cumulative = -4.50879e-06
DICPCG:  Solving for p_rgh, Initial residual = 3.21687e-05, Final residual = 9.43345e-08, No Iterations 55
time step continuity errors : sum local = 2.99411e-08, global = -5.86356e-09, cumulative = -4.51466e-06
ExecutionTime = 0.61 s  ClockTime = 1 s

Courant Number mean: 0.0330991 max: 0.269215
Interface Courant Number mean: 0.00126818 max: 0.234391
deltaT = 0.001
Time = 0.05

smoothSolver:  Solving for alpha.water, Initial residual = 0.000808142, Final residual = 6.57742e-09, No Iterations 2
Phase-1 volume fraction = 0.124752  Min(alpha.water) = -7.28056e-13  Max(alpha.water) = 1
MULES: Correcting alpha.water
MULES: Correcting alpha.water
Phase-1 volume fraction = 0.124752  Min(alpha.water) = -1.65485e-10  Max(alpha.water) = 1
DICPCG:  Solving for p_rgh, Initial residual = 0.0270904, Final residual = 0.000234037, No Iterations 1
time step continuity errors : sum local = 8.58492e-05, global = -4.38079e-09, cumulative = -4.51904e-06
DICPCG:  Solving for p_rgh, Initial residual = 0.000247008, Final residual = 1.19757e-05, No Iterations 10
time step continuity errors : sum local = 4.3046e-06, global = -6.95331e-09, cumulative = -4.52599e-06
DICPCG:  Solving for p_rgh, Initial residual = 2.23651e-05, Final residual = 9.88572e-08, No Iterations 45
time step continuity errors : sum local = 3.55481e-08, global = 7.70596e-10, cumulative = -4.52522e-06
ExecutionTime = 0.62 s  ClockTime = 1 s

Courant Number mean: 0.0337537 max: 0.268829
Interface Courant Number mean: 0.00135977 max: 0.237622
deltaT = 0.001
Time = 0.051

smoothSolver:  Solving for alpha.water, Initial residual = 0.000824094, Final residual = 7.01904e-09, No Iterations 2
Phase-1 volume fraction = 0.124752  Min(alpha.water) = -6.62952e-13  Max(alpha.water) = 1
MULES: Correcting alpha.water
MULES: Correcting alpha.water
Phase-1 volume fraction = 0.124752  Min(alpha.water) = -6.85617e-09  Max(alpha.water) = 1
DICPCG:  Solving for p_rgh, Initial residual = 0.027449, Final residual = 0.000262453, No Iterations 1
time step continuity errors : sum local = 9.19151e-05, global = 9.17212e-09, cumulative = -4.51605e-06
DICPCG:  Solving for p_rgh, Initial residual = 0.000275426, Final residual = 1.37668e-05, No Iterations 10
time step continuity errors : sum local = 4.72385e-06, global = 8.50333e-09, cumulative = -4.50754e-06
DICPCG:  Solving for p_rgh, Initial residual = 2.55298e-05, Final residual = 8.83943e-08, No Iterations 48
time step continuity errors : sum local = 3.03466e-08, global = 8.5872e-09, cumulative = -4.49896e-06
ExecutionTime = 0.63 s  ClockTime = 1 s

Courant Number mean: 0.034405 max: 0.267169
Interface Courant Number mean: 0.0014498 max: 0.24098
deltaT = 0.001
Time = 0.052

smoothSolver:  Solving for alpha.water, Initial residual = 0.000839443, Final residual = 7.54893e-09, No Iterations 2
Phase-1 volume fraction = 0.124752  Min(alpha.water) = -6.02646e-13  Max(alpha.water) = 1
MULES: Correcting alpha.water
MULES: Correcting alpha.water
Phase-1 volume fraction = 0.124752  Min(alpha.water) = -1.62843e-08  Max(alpha.water) = 1
DICPCG:  Solving for p_rgh, Initial residual = 0.027555, Final residual = 0.00029583, No Iterations 1
time step continuity errors : sum local = 9.89067e-05, global = 1.81484e-08, cumulative = -4.48081e-06
DICPCG:  Solving for p_rgh, Initial residual = 0.000311331, Final residual = 1.54515e-05, No Iterations 10
time step continuity errors : sum local = 5.06227e-06, global = 1.72595e-08, cumulative = -4.46355e-06
DICPCG:  Solving for p_rgh, Initial residual = 2.87654e-05, Final residual = 9.28327e-08, No Iterations 77
time step continuity errors : sum local = 3.04312e-08, global = -2.11722e-09, cumulative = -4.46567e-06
ExecutionTime = 0.65 s  ClockTime = 1 s

Courant Number mean: 0.0350582 max: 0.267738
Interface Courant Number mean: 0.00152058 max: 0.244294
deltaT = 0.001
Time = 0.053

smoothSolver:  Solving for alpha.water, Initial residual = 0.000856392, Final residual = 8.11728e-09, No Iterations 2
Phase-1 volume fraction = 0.124752  Min(alpha.water) = -5.46871e-13  Max(alpha.water) = 1
MULES: Correcting alpha.water
MULES: Correcting alpha.water
Phase-1 volume fraction = 0.124752  Min(alpha.water) = -1.6181e-08  Max(alpha.water) = 1
DICPCG:  Solving for p_rgh, Initial residual = 0.0274489, Final residual = 0.000343266, No Iterations 1
time step continuity errors : sum local = 0.000109646, global = -1.0837e-08, cumulative = -4.4765e-06
DICPCG:  Solving for p_rgh, Initial residual = 0.000361497, Final residual = 1.74439e-05, No Iterations 10
time step continuity errors : sum local = 5.46396e-06, global = -1.08075e-08, cumulative = -4.48731e-06
DICPCG:  Solving for p_rgh, Initial residual = 3.26972e-05, Final residual = 9.92447e-08, No Iterations 81
time step continuity errors : sum local = 3.11048e-08, global = -1.05593e-09, cumulative = -4.48837e-06
ExecutionTime = 0.66 s  ClockTime = 1 s

Courant Number mean: 0.0357216 max: 0.277579
Interface Courant Number mean: 0.00157416 max: 0.246667
deltaT = 0.001
Time = 0.054

smoothSolver:  Solving for alpha.water, Initial residual = 0.00087646, Final residual = 8.82759e-09, No Iterations 2
Phase-1 volume fraction = 0.124752  Min(alpha.water) = -4.95391e-13  Max(alpha.water) = 1
MULES: Correcting alpha.water
MULES: Correcting alpha.water
Phase-1 volume fraction = 0.124752  Min(alpha.water) = -1.07553e-08  Max(alpha.water) = 1
DICPCG:  Solving for p_rgh, Initial residual = 0.0271033, Final residual = 0.000404322, No Iterations 1
time step continuity errors : sum local = 0.000123835, global = 1.9711e-09, cumulative = -4.4864e-06
DICPCG:  Solving for p_rgh, Initial residual = 0.000424466, Final residual = 2.08233e-05, No Iterations 9
time step continuity errors : sum local = 6.25618e-06, global = 8.54512e-10, cumulative = -4.48554e-06
DICPCG:  Solving for p_rgh, Initial residual = 3.66594e-05, Final residual = 9.92521e-08, No Iterations 78
time step continuity errors : sum local = 2.9833e-08, global = -3.37073e-10, cumulative = -4.48588e-06
ExecutionTime = 0.67 s  ClockTime = 1 s

Courant Number mean: 0.0363809 max: 0.284935
Interface Courant Number mean: 0.00159096 max: 0.248138
deltaT = 0.001
Time = 0.055

smoothSolver:  Solving for alpha.water, Initial residual = 0.000892494, Final residual = 9.58708e-09, No Iterations 2
Phase-1 volume fraction = 0.124752  Min(alpha.water) = -4.47902e-13  Max(alpha.water) = 1
MULES: Correcting alpha.water
MULES: Correcting alpha.water
Phase-1 volume fraction = 0.124752  Min(alpha.water) = -2.7634e-10  Max(alpha.water) = 1
DICPCG:  Solving for p_rgh, Initial residual = 0.0271656, Final residual = 0.000468429, No Iterations 1
time step continuity errors : sum local = 0.000138181, global = 2.41283e-09, cumulative = -4.48347e-06
DICPCG:  Solving for p_rgh, Initial residual = 0.000491701, Final residual = 2.43391e-05, No Iterations 9
time step continuity errors : sum local = 7.04603e-06, global = 2.30727e-09, cumulative = -4.48116e-06
DICPCG:  Solving for p_rgh, Initial residual = 4.28601e-05, Final residual = 8.91971e-08, No Iterations 90
time step continuity errors : sum local = 2.58337e-08, global = -1.35467e-10, cumulative = -4.48129e-06
ExecutionTime = 0.69 s  ClockTime = 1 s

Courant Number mean: 0.0370511 max: 0.286621
Interface Courant Number mean: 0.0016247 max: 0.243258
deltaT = 0.001
Time = 0.056

smoothSolver:  Solving for alpha.water, Initial residual = 0.000906998, Final residual = 3.49282e-11, No Iterations 3
Phase-1 volume fraction = 0.124752  Min(alpha.water) = -4.04166e-13  Max(alpha.water) = 1
MULES: Correcting alpha.water
MULES: Correcting alpha.water
Phase-1 volume fraction = 0.124752  Min(alpha.water) = -5.04484e-10  Max(alpha.water) = 1
DICPCG:  Solving for p_rgh, Initial residual = 0.0265998, Final residual = 0.000521732, No Iterations 1
time step continuity errors : sum local = 0.000147644, global = 2.2396e-09, cumulative = -4.47905e-06
DICPCG:  Solving for p_rgh, Initial residual = 0.000546651, Final residual = 2.64152e-05, No Iterations 8
time step continuity errors : sum local = 7.34205e-06, global = 1.26763e-09, cumulative = -4.47779e-06
DICPCG:  Solving for p_rgh, Initial residual = 4.62863e-05, Final residual = 9.80084e-08, No Iterations 89
time step continuity errors : sum local = 2.72493e-08, global = 6.54105e-10, cumulative = -4.47713e-06
ExecutionTime = 0.7 s  ClockTime = 1 s

Courant Number mean: 0.0377181 max: 0.285693
Interface Courant Number mean: 0.00166262 max: 0.251091
deltaT = 0.001
Time = 0.057

smoothSolver:  Solving for alpha.water, Initial residual = 0.000922285, Final residual = 3.79197e-11, No Iterations 3
Phase-1 volume fraction = 0.124752  Min(alpha.water) = -3.63711e-13  Max(alpha.water) = 1
MULES: Correcting alpha.water
MULES: Correcting alpha.water
Phase-1 volume fraction = 0.124752  Min(alpha.water) = -8.48874e-09  Max(alpha.water) = 1
DICPCG:  Solving for p_rgh, Initial residual = 0.0258918, Final residual = 0.000583573, No Iterations 1
time step continuity errors : sum local = 0.000158799, global = 3.47826e-09, cumulative = -4.47365e-06
DICPCG:  Solving for p_rgh, Initial residual = 0.000611729, Final residual = 3.03722e-05, No Iterations 7
time step continuity errors : sum local = 8.13295e-06, global = 3.6744e-09, cumulative = -4.46998e-06
DICPCG:  Solving for p_rgh, Initial residual = 5.22958e-05, Final residual = 9.44801e-08, No Iterations 60
time step continuity errors : sum local = 2.53037e-08, global = 4.70166e-09, cumulative = -4.46528e-06
ExecutionTime = 0.71 s  ClockTime = 1 s

Courant Number mean: 0.0383848 max: 0.283732
Interface Courant Number mean: 0.00169066 max: 0.255344
deltaT = 0.001
Time = 0.058

smoothSolver:  Solving for alpha.water, Initial residual = 0.000937701, Final residual = 4.18832e-11, No Iterations 3
Phase-1 volume fraction = 0.124752  Min(alpha.water) = -3.26573e-13  Max(alpha.water) = 1
MULES: Correcting alpha.water
MULES: Correcting alpha.water
Phase-1 volume fraction = 0.124752  Min(alpha.water) = -9.9836e-09  Max(alpha.water) = 1
DICPCG:  Solving for p_rgh, Initial residual = 0.0241036, Final residual = 0.000561432, No Iterations 1
time step continuity errors : sum local = 0.000148937, global = 1.06765e-08, cumulative = -4.4546e-06
DICPCG:  Solving for p_rgh, Initial residual = 0.000588956, Final residual = 2.90409e-05, No Iterations 8
time step continuity errors : sum local = 7.5876e-06, global = 1.10213e-08, cumulative = -4.44358e-06
DICPCG:  Solving for p_rgh, Initial residual = 4.85495e-05, Final residual = 9.7078e-08, No Iterations 89
time step continuity errors : sum local = 2.53749e-08, global = 5.09766e-10, cumulative = -4.44307e-06
ExecutionTime = 0.73 s  ClockTime = 1 s

Courant Number mean: 0.0390428 max: 0.289684
Interface Courant Number mean: 0.00172799 max: 0.257664
deltaT = 0.001
Time = 0.059

smoothSolver:  Solving for alpha.water, Initial residual = 0.00095208, Final residual = 4.62175e-11, No Iterations 3
Phase-1 volume fraction = 0.124752  Min(alpha.water) = -2.92509e-13  Max(alpha.water) = 1
MULES: Correcting alpha.water
MULES: Correcting alpha.water
Phase-1 volume fraction = 0.124752  Min(alpha.water) = -1.60693e-08  Max(alpha.water) = 1
DICPCG:  Solving for p_rgh, Initial residual = 0.0250286, Final residual = 0.000595816, No Iterations 1
time step continuity errors : sum local = 0.00015685, global = -1.75853e-09, cumulative = -4.44483e-06
DICPCG:  Solving for p_rgh, Initial residual = 0.000625962, Final residual = 3.05782e-05, No Iterations 7
time step continuity errors : sum local = 7.9246e-06, global = -1.31469e-09, cumulative = -4.44614e-06
DICPCG:  Solving for p_rgh, Initial residual = 5.01314e-05, Final residual = 9.62888e-08, No Iterations 88
time step continuity errors : sum local = 2.49617e-08, global = -2.10891e-10, cumulative = -4.44635e-06
ExecutionTime = 0.74 s  ClockTime = 1 s

Courant Number mean: 0.0396822 max: 0.298869
Interface Courant Number mean: 0.00174825 max: 0.258743
deltaT = 0.001
Time = 0.06

smoothSolver:  Solving for alpha.water, Initial residual = 0.000967807, Final residual = 5.13832e-11, No Iterations 3
Phase-1 volume fraction = 0.124752  Min(alpha.water) = -2.61164e-13  Max(alpha.water) = 1
MULES: Correcting alpha.water
MULES: Correcting alpha.water
Phase-1 volume fraction = 0.124752  Min(alpha.water) = -1.8629e-08  Max(alpha.water) = 1
DICPCG:  Solving for p_rgh, Initial residual = 0.0231874, Final residual = 0.000682847, No Iterations 1
time step continuity errors : sum local = 0.000174361, global = 6.63362e-10, cumulative = -4.44569e-06
DICPCG:  Solving for p_rgh, Initial residual = 0.000717225, Final residual = 3.43224e-05, No Iterations 7
time step continuity errors : sum local = 8.64698e-06, global = 2.40791e-09, cumulative = -4.44328e-06
DICPCG:  Solving for p_rgh, Initial residual = 5.67424e-05, Final residual = 9.08267e-08, No Iterations 93
time step continuity errors : sum local = 2.28894e-08, global = 1.53906e-09, cumulative = -4.44174e-06
ExecutionTime = 0.75 s  ClockTime = 1 s

Courant Number mean: 0.0403167 max: 0.30082
Interface Courant Number mean: 0.00172537 max: 0.254201
deltaT = 0.001
Time = 0.061

smoothSolver:  Solving for alpha.water, Initial residual = 0.000981658, Final residual = 5.62176e-11, No Iterations 3
Phase-1 volume fraction = 0.124752  Min(alpha.water) = -2.32384e-13  Max(alpha.water) = 1
MULES: Correcting alpha.water
MULES: Correcting alpha.water
Phase-1 volume fraction = 0.124752  Min(alpha.water) = -9.15466e-09  Max(alpha.water) = 1
DICPCG:  Solving for p_rgh, Initial residual = 0.022599, Final residual = 0.000764703, No Iterations 1
time step continuity errors : sum local = 0.000194142, global = 4.79166e-09, cumulative = -4.43695e-06
DICPCG:  Solving for p_rgh, Initial residual = 0.000804797, Final residual = 3.76126e-05, No Iterations 7
time step continuity errors : sum local = 9.43823e-06, global = 4.08585e-09, cumulative = -4.43287e-06
DICPCG:  Solving for p_rgh, Initial residual = 6.40087e-05, Final residual = 9.26738e-08, No Iterations 96
time step continuity errors : sum local = 2.3261e-08, global = 1.59601e-09, cumulative = -4.43127e-06
ExecutionTime = 0.77 s  ClockTime = 1 s

Courant Number mean: 0.040945 max: 0.300192
Interface Courant Number mean: 0.00177303 max: 0.264478
deltaT = 0.001
Time = 0.062

smoothSolver:  Solving for alpha.water, Initial residual = 0.000995358, Final residual = 6.2419e-11, No Iterations 3
Phase-1 volume fraction = 0.124752  Min(alpha.water) = -2.06112e-13  Max(alpha.water) = 1
MULES: Correcting alpha.water
MULES: Correcting alpha.water
Phase-1 volume fraction = 0.124752  Min(alpha.water) = -1.65321e-08  Max(alpha.water) = 1
DICPCG:  Solving for p_rgh, Initial residual = 0.0231673, Final residual = 0.000734636, No Iterations 1
time step continuity errors : sum local = 0.000194276, global = 3.24278e-09, cumulative = -4.42803e-06
DICPCG:  Solving for p_rgh, Initial residual = 0.000772386, Final residual = 3.73776e-05, No Iterations 7
time step continuity errors : sum local = 9.76089e-06, global = 3.04529e-09, cumulative = -4.42498e-06
DICPCG:  Solving for p_rgh, Initial residual = 6.1773e-05, Final residual = 9.86479e-08, No Iterations 63
time step continuity errors : sum local = 2.57676e-08, global = 3.27644e-09, cumulative = -4.42171e-06
ExecutionTime = 0.78 s  ClockTime = 1 s

Courant Number mean: 0.0415748 max: 0.29893
Interface Courant Number mean: 0.00175063 max: 0.265222
deltaT = 0.001
Time = 0.063

smoothSolver:  Solving for alpha.water, Initial residual = 0.00101004, Final residual = 6.83204e-11, No Iterations 3
Phase-1 volume fraction = 0.124752  Min(alpha.water) = -1.81471e-13  Max(alpha.water) = 1
MULES: Correcting alpha.water
MULES: Correcting alpha.water
Phase-1 volume fraction = 0.124752  Min(alpha.water) = -3.10428e-08  Max(alpha.water) = 1
DICPCG:  Solving for p_rgh, Initial residual = 0.0249711, Final residual = 0.000668145, No Iterations 1
time step continuity errors : sum local = 0.000188401, global = 6.6203e-09, cumulative = -4.41509e-06
DICPCG:  Solving for p_rgh, Initial residual = 0.000703933, Final residual = 3.34225e-05, No Iterations 7
time step continuity errors : sum local = 9.29409e-06, global = 7.26985e-09, cumulative = -4.40782e-06
DICPCG:  Solving for p_rgh, Initial residual = 5.59269e-05, Final residual = 9.66353e-08, No Iterations 96
time step continuity errors : sum local = 2.68782e-08, global = 1.1582e-09, cumulative = -4.40666e-06
ExecutionTime = 0.79 s  ClockTime = 1 s

Courant Number mean: 0.0422055 max: 0.302728
Interface Courant Number mean: 0.00179901 max: 0.267225
deltaT = 0.001
Time = 0.064

smoothSolver:  Solving for alpha.water, Initial residual = 0.00102645, Final residual = 7.45676e-11, No Iterations 3
Phase-1 volume fraction = 0.124752  Min(alpha.water) = -1.57463e-13  Max(alpha.water) = 1
MULES: Correcting alpha.water
MULES: Correcting alpha.water
Phase-1 volume fraction = 0.124752  Min(alpha.water) = -4.25011e-08  Max(alpha.water) = 1
DICPCG:  Solving for p_rgh, Initial residual = 0.0267765, Final residual = 0.000535961, No Iterations 1
time step continuity errors : sum local = 0.000163492, global = 1.01726e-09, cumulative = -4.40564e-06
DICPCG:  Solving for p_rgh, Initial residual = 0.000567351, Final residual = 2.73322e-05, No Iterations 8
time step continuity errors : sum local = 8.18714e-06, global = -5.43313e-10, cumulative = -4.40618e-06
DICPCG:  Solving for p_rgh, Initial residual = 5.01268e-05, Final residual = 9.90937e-08, No Iterations 94
time step continuity errors : sum local = 2.96889e-08, global = 1.10717e-09, cumulative = -4.40508e-06
ExecutionTime = 0.8 s  ClockTime = 1 s

Courant Number mean: 0.0428466 max: 0.311443
Interface Courant Number mean: 0.00179815 max: 0.267433
deltaT = 0.001
Time = 0.065

smoothSolver:  Solving for alpha.water, Initial residual = 0.00104444, Final residual = 8.22924e-11, No Iterations 3
Phase-1 volume fraction = 0.124752  Min(alpha.water) = -3.48072e-11  Max(alpha.water) = 1
MULES: Correcting alpha.water
MULES: Correcting alpha.water
Phase-1 volume fraction = 0.124752  Min(alpha.water) = -4.56139e-08  Max(alpha.water) = 1
DICPCG:  Solving for p_rgh, Initial residual = 0.0320967, Final residual = 0.000353227, No Iterations 1
time step continuity errors : sum local = 0.000121936, global = 2.96274e-09, cumulative = -4.40211e-06
DICPCG:  Solving for p_rgh, Initial residual = 0.000378721, Final residual = 1.69854e-05, No Iterations 10
time step continuity errors : sum local = 5.71454e-06, global = 1.07597e-09, cumulative = -4.40104e-06
DICPCG:  Solving for p_rgh, Initial residual = 3.65812e-05, Final residual = 9.89879e-08, No Iterations 84
time step continuity errors : sum local = 3.33241e-08, global = -1.45564e-09, cumulative = -4.40249e-06
ExecutionTime = 0.82 s  ClockTime = 1 s

Courant Number mean: 0.0434907 max: 0.312345
Interface Courant Number mean: 0.00186339 max: 0.277193
deltaT = 0.001
Time = 0.066

smoothSolver:  Solving for alpha.water, Initial residual = 0.00106234, Final residual = 8.93989e-11, No Iterations 3
Phase-1 volume fraction = 0.124752  Min(alpha.water) = -3.20659e-11  Max(alpha.water) = 1
MULES: Correcting alpha.water
MULES: Correcting alpha.water
Phase-1 volume fraction = 0.124752  Min(alpha.water) = -4.08918e-08  Max(alpha.water) = 1
DICPCG:  Solving for p_rgh, Initial residual = 0.0319632, Final residual = 0.000399765, No Iterations 1
time step continuity errors : sum local = 0.000130678, global = -1.96697e-09, cumulative = -4.40446e-06
DICPCG:  Solving for p_rgh, Initial residual = 0.000428031, Final residual = 2.06556e-05, No Iterations 10
time step continuity errors : sum local = 6.58094e-06, global = -2.01888e-09, cumulative = -4.40648e-06
DICPCG:  Solving for p_rgh, Initial residual = 4.22133e-05, Final residual = 9.84993e-08, No Iterations 89
time step continuity errors : sum local = 3.14032e-08, global = -9.59194e-11, cumulative = -4.40658e-06
ExecutionTime = 0.83 s  ClockTime = 1 s

Courant Number mean: 0.0441555 max: 0.311108
Interface Courant Number mean: 0.00198119 max: 0.273468
deltaT = 0.001
Time = 0.067

smoothSolver:  Solving for alpha.water, Initial residual = 0.00107818, Final residual = 9.82864e-11, No Iterations 3
Phase-1 volume fraction = 0.124752  Min(alpha.water) = -2.95124e-11  Max(alpha.water) = 1
MULES: Correcting alpha.water
MULES: Correcting alpha.water
Phase-1 volume fraction = 0.124752  Min(alpha.water) = -3.67185e-08  Max(alpha.water) = 1
DICPCG:  Solving for p_rgh, Initial residual = 0.03185, Final residual = 0.000474909, No Iterations 1
time step continuity errors : sum local = 0.000147468, global = 3.49358e-09, cumulative = -4.40308e-06
DICPCG:  Solving for p_rgh, Initial residual = 0.00050728, Final residual = 2.52422e-05, No Iterations 8
time step continuity errors : sum local = 7.64361e-06, global = 2.75266e-09, cumulative = -4.40033e-06
DICPCG:  Solving for p_rgh, Initial residual = 4.7888e-05, Final residual = 9.22753e-08, No Iterations 80
time step continuity errors : sum local = 2.7952e-08, global = 3.19324e-11, cumulative = -4.4003e-06
ExecutionTime = 0.84 s  ClockTime = 1 s

Courant Number mean: 0.0448001 max: 0.310415
Interface Courant Number mean: 0.00202282 max: 0.272673
deltaT = 0.001
Time = 0.068

smoothSolver:  Solving for alpha.water, Initial residual = 0.00109237, Final residual = 1.07999e-10, No Iterations 3
Phase-1 volume fraction = 0.124752  Min(alpha.water) = -2.71372e-11  Max(alpha.water) = 1
MULES: Correcting alpha.water
MULES: Correcting alpha.water
Phase-1 volume fraction = 0.124752  Min(alpha.water) = -4.21651e-08  Max(alpha.water) = 1
DICPCG:  Solving for p_rgh, Initial residual = 0.0311994, Final residual = 0.000536383, No Iterations 1
time step continuity errors : sum local = 0.000158098, global = 2.02891e-09, cumulative = -4.39827e-06
DICPCG:  Solving for p_rgh, Initial residual = 0.000571758, Final residual = 2.85315e-05, No Iterations 8
time step continuity errors : sum local = 8.21209e-06, global = 2.96561e-09, cumulative = -4.3953e-06
DICPCG:  Solving for p_rgh, Initial residual = 5.43537e-05, Final residual = 8.57801e-08, No Iterations 92
time step continuity errors : sum local = 2.46997e-08, global = 2.17168e-10, cumulative = -4.39509e-06
ExecutionTime = 0.86 s  ClockTime = 1 s

Courant Number mean: 0.0454497 max: 0.315469
Interface Courant Number mean: 0.00206003 max: 0.275643
deltaT = 0.001
Time = 0.069

[...]
DICPCG:  Solving for p_rgh, Initial residual = 0.000211456, Final residual = 9.2423e-08, No Iterations 106
time step continuity errors : sum local = 1.72166e-08, global = 4.38235e-10, cumulative = 0.000116954
ExecutionTime = 22.52 s  ClockTime = 23 s

Courant Number mean: 0.175203 max: 0.643482
Interface Courant Number mean: 0.0171336 max: 0.389207
deltaT = 0.000833333
Time = 0.986667

smoothSolver:  Solving for alpha.water, Initial residual = 0.00359559, Final residual = 5.59301e-10, No Iterations 3
Phase-1 volume fraction = 0.122588  Min(alpha.water) = -1.24618e-10  Max(alpha.water) = 1
MULES: Correcting alpha.water
MULES: Correcting alpha.water
Phase-1 volume fraction = 0.122588  Min(alpha.water) = -5.61414e-09  Max(alpha.water) = 1
DICPCG:  Solving for p_rgh, Initial residual = 0.0304693, Final residual = 0.000900491, No Iterations 2
time step continuity errors : sum local = 0.000167971, global = -5.94388e-07, cumulative = 0.00011636
DICPCG:  Solving for p_rgh, Initial residual = 0.00111832, Final residual = 4.64087e-05, No Iterations 10
time step continuity errors : sum local = 8.58882e-06, global = 3.50218e-08, cumulative = 0.000116395
DICPCG:  Solving for p_rgh, Initial residual = 0.000197402, Final residual = 9.40172e-08, No Iterations 117
time step continuity errors : sum local = 1.73993e-08, global = -1.07446e-09, cumulative = 0.000116394
ExecutionTime = 22.53 s  ClockTime = 23 s

Courant Number mean: 0.175008 max: 0.639406
Interface Courant Number mean: 0.0171068 max: 0.388963
deltaT = 0.000833333
Time = 0.9875

smoothSolver:  Solving for alpha.water, Initial residual = 0.00358298, Final residual = 5.29491e-10, No Iterations 3
Phase-1 volume fraction = 0.122588  Min(alpha.water) = -1.15911e-10  Max(alpha.water) = 1
MULES: Correcting alpha.water
MULES: Correcting alpha.water
Phase-1 volume fraction = 0.122588  Min(alpha.water) = -6.89473e-09  Max(alpha.water) = 1
DICPCG:  Solving for p_rgh, Initial residual = 0.0313109, Final residual = 0.00103735, No Iterations 2
time step continuity errors : sum local = 0.000194697, global = -9.74396e-07, cumulative = 0.000115419
DICPCG:  Solving for p_rgh, Initial residual = 0.00125821, Final residual = 5.82087e-05, No Iterations 18
time step continuity errors : sum local = 1.08248e-05, global = -2.90213e-08, cumulative = 0.00011539
DICPCG:  Solving for p_rgh, Initial residual = 0.00022403, Final residual = 9.57629e-08, No Iterations 106
time step continuity errors : sum local = 1.78287e-08, global = -4.34093e-10, cumulative = 0.00011539
ExecutionTime = 22.54 s  ClockTime = 23 s

Courant Number mean: 0.17478 max: 0.633674
Interface Courant Number mean: 0.0169802 max: 0.351082
deltaT = 0.000833333
Time = 0.988333

smoothSolver:  Solving for alpha.water, Initial residual = 0.00357291, Final residual = 4.93561e-10, No Iterations 3
Phase-1 volume fraction = 0.122587  Min(alpha.water) = -1.06368e-10  Max(alpha.water) = 1
MULES: Correcting alpha.water
MULES: Correcting alpha.water
Phase-1 volume fraction = 0.122587  Min(alpha.water) = -3.23294e-09  Max(alpha.water) = 1
DICPCG:  Solving for p_rgh, Initial residual = 0.0306533, Final residual = 0.000940748, No Iterations 2
time step continuity errors : sum local = 0.000175661, global = -9.68764e-07, cumulative = 0.000114421
DICPCG:  Solving for p_rgh, Initial residual = 0.00116822, Final residual = 4.6828e-05, No Iterations 19
time step continuity errors : sum local = 8.662e-06, global = 2.04835e-07, cumulative = 0.000114626
DICPCG:  Solving for p_rgh, Initial residual = 0.000207141, Final residual = 9.81212e-08, No Iterations 107
time step continuity errors : sum local = 1.81829e-08, global = 1.865e-09, cumulative = 0.000114628
ExecutionTime = 22.56 s  ClockTime = 23 s

Courant Number mean: 0.174562 max: 0.626795
Interface Courant Number mean: 0.0170669 max: 0.36496
deltaT = 0.000833333
Time = 0.989167

smoothSolver:  Solving for alpha.water, Initial residual = 0.00355246, Final residual = 4.81593e-10, No Iterations 3
Phase-1 volume fraction = 0.122586  Min(alpha.water) = -9.63209e-11  Max(alpha.water) = 1
MULES: Correcting alpha.water
MULES: Correcting alpha.water
Phase-1 volume fraction = 0.122586  Min(alpha.water) = -6.61282e-10  Max(alpha.water) = 1
DICPCG:  Solving for p_rgh, Initial residual = 0.0296229, Final residual = 0.000869295, No Iterations 2
time step continuity errors : sum local = 0.000158739, global = -1.05353e-06, cumulative = 0.000113574
DICPCG:  Solving for p_rgh, Initial residual = 0.00108301, Final residual = 4.43938e-05, No Iterations 10
time step continuity errors : sum local = 8.04883e-06, global = -2.5754e-07, cumulative = 0.000113317
DICPCG:  Solving for p_rgh, Initial residual = 0.0001945, Final residual = 9.61712e-08, No Iterations 118
time step continuity errors : sum local = 1.74431e-08, global = 2.02543e-11, cumulative = 0.000113317
ExecutionTime = 22.57 s  ClockTime = 23 s

Courant Number mean: 0.174312 max: 0.619157
Interface Courant Number mean: 0.0170153 max: 0.350168
deltaT = 0.000833333
Time = 0.99

smoothSolver:  Solving for alpha.water, Initial residual = 0.00352534, Final residual = 4.84728e-10, No Iterations 3
Phase-1 volume fraction = 0.122585  Min(alpha.water) = -8.60641e-11  Max(alpha.water) = 1
MULES: Correcting alpha.water
MULES: Correcting alpha.water
Phase-1 volume fraction = 0.122585  Min(alpha.water) = -2.37919e-10  Max(alpha.water) = 1
DICPCG:  Solving for p_rgh, Initial residual = 0.029294, Final residual = 0.000871887, No Iterations 2
time step continuity errors : sum local = 0.000157266, global = -1.32296e-06, cumulative = 0.000111994
DICPCG:  Solving for p_rgh, Initial residual = 0.00109902, Final residual = 4.37462e-05, No Iterations 10
time step continuity errors : sum local = 7.83363e-06, global = -5.10955e-08, cumulative = 0.000111943
DICPCG:  Solving for p_rgh, Initial residual = 0.000195864, Final residual = 9.03842e-08, No Iterations 122
time step continuity errors : sum local = 1.61913e-08, global = -4.99831e-10, cumulative = 0.000111942
ExecutionTime = 22.59 s  ClockTime = 23 s

Courant Number mean: 0.174069 max: 0.615443
Interface Courant Number mean: 0.0171315 max: 0.373138
deltaT = 0.000833333
Time = 0.990833

smoothSolver:  Solving for alpha.water, Initial residual = 0.00351008, Final residual = 4.96596e-10, No Iterations 3
Phase-1 volume fraction = 0.122584  Min(alpha.water) = -7.59062e-11  Max(alpha.water) = 1
MULES: Correcting alpha.water
MULES: Correcting alpha.water
Phase-1 volume fraction = 0.122584  Min(alpha.water) = -1.97262e-10  Max(alpha.water) = 1
DICPCG:  Solving for p_rgh, Initial residual = 0.029439, Final residual = 0.0010102, No Iterations 2
time step continuity errors : sum local = 0.000185194, global = -1.50436e-06, cumulative = 0.000110438
DICPCG:  Solving for p_rgh, Initial residual = 0.00123497, Final residual = 5.52574e-05, No Iterations 10
time step continuity errors : sum local = 1.0048e-05, global = -4.74696e-07, cumulative = 0.000109963
DICPCG:  Solving for p_rgh, Initial residual = 0.000218757, Final residual = 9.80561e-08, No Iterations 97
time step continuity errors : sum local = 1.78432e-08, global = 2.95401e-09, cumulative = 0.000109966
ExecutionTime = 22.6 s  ClockTime = 23 s

Courant Number mean: 0.173835 max: 0.614364
Interface Courant Number mean: 0.0169372 max: 0.353387
deltaT = 0.000833333
Time = 0.991667

smoothSolver:  Solving for alpha.water, Initial residual = 0.00350102, Final residual = 5.23298e-10, No Iterations 3
Phase-1 volume fraction = 0.122584  Min(alpha.water) = -8.08176e-11  Max(alpha.water) = 1
MULES: Correcting alpha.water
MULES: Correcting alpha.water
Phase-1 volume fraction = 0.122584  Min(alpha.water) = -3.01874e-08  Max(alpha.water) = 1
DICPCG:  Solving for p_rgh, Initial residual = 0.0290573, Final residual = 0.000948279, No Iterations 2
time step continuity errors : sum local = 0.000172339, global = -1.45366e-06, cumulative = 0.000108512
DICPCG:  Solving for p_rgh, Initial residual = 0.00117468, Final residual = 5.52366e-05, No Iterations 10
time step continuity errors : sum local = 9.95428e-06, global = -2.00368e-07, cumulative = 0.000108312
DICPCG:  Solving for p_rgh, Initial residual = 0.000211915, Final residual = 9.20059e-08, No Iterations 105
time step continuity errors : sum local = 1.65864e-08, global = 1.94374e-09, cumulative = 0.000108314
ExecutionTime = 22.62 s  ClockTime = 23 s

Courant Number mean: 0.173632 max: 0.616331
Interface Courant Number mean: 0.0169468 max: 0.371905
deltaT = 0.000833333
Time = 0.9925

smoothSolver:  Solving for alpha.water, Initial residual = 0.00349459, Final residual = 5.55795e-10, No Iterations 3
Phase-1 volume fraction = 0.122583  Min(alpha.water) = -7.56774e-11  Max(alpha.water) = 1
MULES: Correcting alpha.water
MULES: Correcting alpha.water
Phase-1 volume fraction = 0.122583  Min(alpha.water) = -8.37468e-09  Max(alpha.water) = 1
DICPCG:  Solving for p_rgh, Initial residual = 0.0291683, Final residual = 0.0010028, No Iterations 2
time step continuity errors : sum local = 0.000183138, global = -1.83425e-06, cumulative = 0.00010648
DICPCG:  Solving for p_rgh, Initial residual = 0.0012331, Final residual = 5.02865e-05, No Iterations 10
time step continuity errors : sum local = 9.1055e-06, global = -2.68665e-07, cumulative = 0.000106211
DICPCG:  Solving for p_rgh, Initial residual = 0.000218635, Final residual = 8.8237e-08, No Iterations 114
time step continuity errors : sum local = 1.59829e-08, global = -4.45133e-10, cumulative = 0.000106211
ExecutionTime = 22.63 s  ClockTime = 23 s

Courant Number mean: 0.173417 max: 0.618557
Interface Courant Number mean: 0.0169346 max: 0.393712
deltaT = 0.000833333
Time = 0.993333

smoothSolver:  Solving for alpha.water, Initial residual = 0.00349257, Final residual = 6.01682e-10, No Iterations 3
Phase-1 volume fraction = 0.122582  Min(alpha.water) = -7.05476e-11  Max(alpha.water) = 1
MULES: Correcting alpha.water
MULES: Correcting alpha.water
Phase-1 volume fraction = 0.122582  Min(alpha.water) = -3.80381e-09  Max(alpha.water) = 1
DICPCG:  Solving for p_rgh, Initial residual = 0.0288437, Final residual = 0.000939073, No Iterations 2
time step continuity errors : sum local = 0.000171318, global = -1.41942e-06, cumulative = 0.000104791
DICPCG:  Solving for p_rgh, Initial residual = 0.00115905, Final residual = 4.27256e-05, No Iterations 10
time step continuity errors : sum local = 7.72807e-06, global = -1.25715e-07, cumulative = 0.000104666
DICPCG:  Solving for p_rgh, Initial residual = 0.000204123, Final residual = 9.16892e-08, No Iterations 121
time step continuity errors : sum local = 1.65899e-08, global = 4.07294e-10, cumulative = 0.000104666
ExecutionTime = 22.64 s  ClockTime = 23 s

Courant Number mean: 0.173191 max: 0.619571
Interface Courant Number mean: 0.0168633 max: 0.380172
deltaT = 0.000833333
Time = 0.994167

smoothSolver:  Solving for alpha.water, Initial residual = 0.00349419, Final residual = 6.55065e-10, No Iterations 3
Phase-1 volume fraction = 0.122582  Min(alpha.water) = -6.54769e-11  Max(alpha.water) = 1
MULES: Correcting alpha.water
MULES: Correcting alpha.water
Phase-1 volume fraction = 0.122582  Min(alpha.water) = -5.33567e-10  Max(alpha.water) = 1
DICPCG:  Solving for p_rgh, Initial residual = 0.0288798, Final residual = 0.000874879, No Iterations 2
time step continuity errors : sum local = 0.000156572, global = -1.83196e-06, cumulative = 0.000102834
DICPCG:  Solving for p_rgh, Initial residual = 0.00109196, Final residual = 4.91707e-05, No Iterations 10
time step continuity errors : sum local = 8.73235e-06, global = -1.28863e-07, cumulative = 0.000102705
DICPCG:  Solving for p_rgh, Initial residual = 0.000198672, Final residual = 9.15136e-08, No Iterations 111
time step continuity errors : sum local = 1.62614e-08, global = 3.2791e-10, cumulative = 0.000102705
ExecutionTime = 22.66 s  ClockTime = 23 s

Courant Number mean: 0.172992 max: 0.619405
Interface Courant Number mean: 0.0169563 max: 0.387734
deltaT = 0.000833333
Time = 0.995

smoothSolver:  Solving for alpha.water, Initial residual = 0.00349572, Final residual = 7.15829e-10, No Iterations 3
Phase-1 volume fraction = 0.122581  Min(alpha.water) = -2.44525e-10  Max(alpha.water) = 1
MULES: Correcting alpha.water
MULES: Correcting alpha.water
Phase-1 volume fraction = 0.122581  Min(alpha.water) = -8.19016e-10  Max(alpha.water) = 1
DICPCG:  Solving for p_rgh, Initial residual = 0.0290442, Final residual = 0.000806686, No Iterations 2
time step continuity errors : sum local = 0.000142737, global = -2.16903e-06, cumulative = 0.000100536
DICPCG:  Solving for p_rgh, Initial residual = 0.00102954, Final residual = 4.17778e-05, No Iterations 10
time step continuity errors : sum local = 7.34109e-06, global = -9.2534e-08, cumulative = 0.000100444
DICPCG:  Solving for p_rgh, Initial residual = 0.00018705, Final residual = 9.15567e-08, No Iterations 116
time step continuity errors : sum local = 1.61017e-08, global = -1.17466e-09, cumulative = 0.000100443
ExecutionTime = 22.67 s  ClockTime = 23 s

Courant Number mean: 0.172797 max: 0.61817
Interface Courant Number mean: 0.0168588 max: 0.394705
deltaT = 0.000833333
Time = 0.995833

smoothSolver:  Solving for alpha.water, Initial residual = 0.00350106, Final residual = 7.86037e-10, No Iterations 3
Phase-1 volume fraction = 0.122581  Min(alpha.water) = -2.34557e-10  Max(alpha.water) = 1
MULES: Correcting alpha.water
MULES: Correcting alpha.water
Phase-1 volume fraction = 0.122581  Min(alpha.water) = -5.44904e-10  Max(alpha.water) = 1
DICPCG:  Solving for p_rgh, Initial residual = 0.0289141, Final residual = 0.000984949, No Iterations 2
time step continuity errors : sum local = 0.00017537, global = -2.54809e-06, cumulative = 9.78946e-05
DICPCG:  Solving for p_rgh, Initial residual = 0.00122287, Final residual = 5.82342e-05, No Iterations 21
time step continuity errors : sum local = 1.02979e-05, global = 1.48184e-07, cumulative = 9.80428e-05
DICPCG:  Solving for p_rgh, Initial residual = 0.00022711, Final residual = 9.91278e-08, No Iterations 111
time step continuity errors : sum local = 1.75551e-08, global = -7.15433e-10, cumulative = 9.80421e-05
ExecutionTime = 22.7 s  ClockTime = 23 s

Courant Number mean: 0.172625 max: 0.615923
Interface Courant Number mean: 0.0167476 max: 0.401472
deltaT = 0.000833333
Time = 0.996667

smoothSolver:  Solving for alpha.water, Initial residual = 0.00350909, Final residual = 8.66987e-10, No Iterations 3
Phase-1 volume fraction = 0.12258  Min(alpha.water) = -2.23495e-10  Max(alpha.water) = 1
MULES: Correcting alpha.water
MULES: Correcting alpha.water
Phase-1 volume fraction = 0.12258  Min(alpha.water) = -2.23495e-10  Max(alpha.water) = 1
DICPCG:  Solving for p_rgh, Initial residual = 0.0281647, Final residual = 0.000949247, No Iterations 2
time step continuity errors : sum local = 0.000166514, global = -2.34717e-06, cumulative = 9.56949e-05
DICPCG:  Solving for p_rgh, Initial residual = 0.00118716, Final residual = 5.85974e-05, No Iterations 10
time step continuity errors : sum local = 1.02091e-05, global = -3.12493e-07, cumulative = 9.53824e-05
DICPCG:  Solving for p_rgh, Initial residual = 0.00021648, Final residual = 9.18987e-08, No Iterations 93
time step continuity errors : sum local = 1.6022e-08, global = 2.79038e-09, cumulative = 9.53852e-05
ExecutionTime = 22.71 s  ClockTime = 23 s

Courant Number mean: 0.172466 max: 0.617074
Interface Courant Number mean: 0.0167641 max: 0.411414
deltaT = 0.000833333
Time = 0.9975

smoothSolver:  Solving for alpha.water, Initial residual = 0.00351714, Final residual = 9.49267e-10, No Iterations 3
Phase-1 volume fraction = 0.12258  Min(alpha.water) = -2.11787e-10  Max(alpha.water) = 1
MULES: Correcting alpha.water
MULES: Correcting alpha.water
Phase-1 volume fraction = 0.12258  Min(alpha.water) = -2.11787e-10  Max(alpha.water) = 1
DICPCG:  Solving for p_rgh, Initial residual = 0.028391, Final residual = 0.00106414, No Iterations 2
time step continuity errors : sum local = 0.000190428, global = -1.70426e-06, cumulative = 9.36809e-05
DICPCG:  Solving for p_rgh, Initial residual = 0.00130444, Final residual = 5.57136e-05, No Iterations 11
time step continuity errors : sum local = 9.89347e-06, global = -3.92335e-08, cumulative = 9.36417e-05
DICPCG:  Solving for p_rgh, Initial residual = 0.000234788, Final residual = 9.54513e-08, No Iterations 113
time step continuity errors : sum local = 1.69645e-08, global = -6.49755e-10, cumulative = 9.36411e-05
ExecutionTime = 22.72 s  ClockTime = 23 s

Courant Number mean: 0.172286 max: 0.622338
Interface Courant Number mean: 0.016683 max: 0.410488
deltaT = 0.000833333
Time = 0.998333

smoothSolver:  Solving for alpha.water, Initial residual = 0.00351148, Final residual = 1.03373e-09, No Iterations 3
Phase-1 volume fraction = 0.122579  Min(alpha.water) = -1.99345e-10  Max(alpha.water) = 1
MULES: Correcting alpha.water
MULES: Correcting alpha.water
Phase-1 volume fraction = 0.122579  Min(alpha.water) = -7.88282e-10  Max(alpha.water) = 1
DICPCG:  Solving for p_rgh, Initial residual = 0.0277123, Final residual = 0.000943316, No Iterations 2
time step continuity errors : sum local = 0.000169255, global = -1.75766e-06, cumulative = 9.18834e-05
DICPCG:  Solving for p_rgh, Initial residual = 0.00116755, Final residual = 5.23644e-05, No Iterations 17
time step continuity errors : sum local = 9.32049e-06, global = 2.13015e-08, cumulative = 9.19047e-05
DICPCG:  Solving for p_rgh, Initial residual = 0.000214053, Final residual = 9.50859e-08, No Iterations 83
time step continuity errors : sum local = 1.69551e-08, global = -8.81265e-10, cumulative = 9.19038e-05
ExecutionTime = 22.73 s  ClockTime = 23 s

Courant Number mean: 0.172105 max: 0.630991
Interface Courant Number mean: 0.0168485 max: 0.413088
deltaT = 0.000833333
Time = 0.999167

smoothSolver:  Solving for alpha.water, Initial residual = 0.00350349, Final residual = 1.09213e-09, No Iterations 3
Phase-1 volume fraction = 0.122579  Min(alpha.water) = -1.86307e-10  Max(alpha.water) = 1
MULES: Correcting alpha.water
MULES: Correcting alpha.water
Phase-1 volume fraction = 0.122579  Min(alpha.water) = -8.65443e-10  Max(alpha.water) = 1
DICPCG:  Solving for p_rgh, Initial residual = 0.0280062, Final residual = 0.000847921, No Iterations 2
time step continuity errors : sum local = 0.000151131, global = -1.51966e-06, cumulative = 9.03842e-05
DICPCG:  Solving for p_rgh, Initial residual = 0.00106431, Final residual = 4.37617e-05, No Iterations 11
time step continuity errors : sum local = 7.73122e-06, global = -2.98722e-07, cumulative = 9.00854e-05
DICPCG:  Solving for p_rgh, Initial residual = 0.000193547, Final residual = 9.19598e-08, No Iterations 107
time step continuity errors : sum local = 1.62607e-08, global = 8.76831e-10, cumulative = 9.00863e-05
ExecutionTime = 22.75 s  ClockTime = 23 s

Courant Number mean: 0.171951 max: 0.638297
Interface Courant Number mean: 0.0168072 max: 0.415429
deltaT = 0.000833333
Time = 1

smoothSolver:  Solving for alpha.water, Initial residual = 0.00350751, Final residual = 1.15599e-09, No Iterations 3
Phase-1 volume fraction = 0.122578  Min(alpha.water) = -1.72836e-10  Max(alpha.water) = 1
MULES: Correcting alpha.water
MULES: Correcting alpha.water
Phase-1 volume fraction = 0.122578  Min(alpha.water) = -4.62182e-09  Max(alpha.water) = 1
DICPCG:  Solving for p_rgh, Initial residual = 0.0284328, Final residual = 0.000791509, No Iterations 2
time step continuity errors : sum local = 0.000139568, global = -1.51109e-06, cumulative = 8.85752e-05
DICPCG:  Solving for p_rgh, Initial residual = 0.00100342, Final residual = 4.82574e-05, No Iterations 11
time step continuity errors : sum local = 8.43988e-06, global = -2.40938e-07, cumulative = 8.83343e-05
DICPCG:  Solving for p_rgh, Initial residual = 0.000183284, Final residual = 9.67739e-08, No Iterations 106
time step continuity errors : sum local = 1.6943e-08, global = -4.8722e-10, cumulative = 8.83338e-05
ExecutionTime = 22.76 s  ClockTime = 23 s

End

Finalising parallel run
