/*---------------------------------------------------------------------------*\
  =========                 |
  \\      /  F ield         | OpenFOAM: The Open Source CFD Toolbox
   \\    /   O peration     | Website:  https://openfoam.org
    \\  /    A nd           | Version:  7
     \\/     M anipulation  |
\*---------------------------------------------------------------------------*/
Build  : 7-1ff648926f77
Exec   : interFoam -parallel
Date   : Mar 28 2024
Time   : 11:03:41
Host   : "pass1234-VirtualBox"
PID    : 14229
I/O    : uncollated
Case   : /home/pass1234/OpenFOAM/pass1234-7/run/damBreak
nProcs : 4
Slaves : 
3
(
"pass1234-VirtualBox.14230"
"pass1234-VirtualBox.14231"
"pass1234-VirtualBox.14232"
)

Pstream initialized with:
    floatTransfer      : 0
    nProcsSimpleSum    : 0
    commsType          : nonBlocking
    polling iterations : 0
sigFpe : Enabling floating point exception trapping (FOAM_SIGFPE).
fileModificationChecking : Monitoring run-time modified files using timeStampMaster (fileModificationSkew 10)
allowSystemOperations : Allowing user-supplied system call operations

// * * * * * * * * * * * * * * * * * * * * * * * * * * * * * * * * * * * * * //
Create time

Create mesh for time = 0


PIMPLE: No convergence criteria found


PIMPLE: Operating solver in transient mode with 1 outer corrector
PIMPLE: Operating solver in PISO mode


Reading field p_rgh

Reading field U

Reading/calculating face flux field phi

Reading transportProperties

Selecting incompressible transport model Newtonian
Selecting incompressible transport model Newtonian
Selecting turbulence model type laminar
Selecting laminar stress model Stokes

Reading g

Reading hRef
Calculating field g.h

No MRF models present

No finite volume options present
DICPCG:  Solving for pcorr, Initial residual = 0, Final residual = 0, No Iterations 0
time step continuity errors : sum local = 0, global = 0, cumulative = 0
Courant Number mean: 0 max: 0

Starting time loop

Courant Number mean: 0 max: 0
Interface Courant Number mean: 0 max: 0
deltaT = 0.001
Time = 0.001

smoothSolver:  Solving for alpha.water, Initial residual = 0, Final residual = 0, No Iterations 0
Phase-1 volume fraction = 0.124752  Min(alpha.water) = 0  Max(alpha.water) = 1
MULES: Correcting alpha.water
MULES: Correcting alpha.water
Phase-1 volume fraction = 0.124752  Min(alpha.water) = 0  Max(alpha.water) = 1
DICPCG:  Solving for p_rgh, Initial residual = 1, Final residual = 0.00344956, No Iterations 1
time step continuity errors : sum local = 0.0012377, global = -4.1476e-20, cumulative = -4.1476e-20
DICPCG:  Solving for p_rgh, Initial residual = 0.00167777, Final residual = 5.88263e-05, No Iterations 26
time step continuity errors : sum local = 4.34151e-05, global = -5.80729e-06, cumulative = -5.80729e-06
DICPCG:  Solving for p_rgh, Initial residual = 4.95439e-05, Final residual = 9.5833e-08, No Iterations 95
time step continuity errors : sum local = 8.47056e-08, global = 4.21444e-09, cumulative = -5.80308e-06
ExecutionTime = 0.02 s  ClockTime = 0 s

Courant Number mean: 0.000962838 max: 0.149451
Interface Courant Number mean: 0 max: 0
deltaT = 0.001
Time = 0.002

smoothSolver:  Solving for alpha.water, Initial residual = 9.90636e-05, Final residual = 1.4411e-12, No Iterations 2
Phase-1 volume fraction = 0.124752  Min(alpha.water) = 0  Max(alpha.water) = 1
MULES: Correcting alpha.water
MULES: Correcting alpha.water
Phase-1 volume fraction = 0.124752  Min(alpha.water) = -3.46581e-13  Max(alpha.water) = 1
DICPCG:  Solving for p_rgh, Initial residual = 0.002093, Final residual = 5.73288e-05, No Iterations 2
time step continuity errors : sum local = 4.36868e-05, global = 1.35162e-08, cumulative = -5.78956e-06
DICPCG:  Solving for p_rgh, Initial residual = 0.00010436, Final residual = 5.15111e-06, No Iterations 66
time step continuity errors : sum local = 3.92653e-06, global = 2.48224e-07, cumulative = -5.54134e-06
DICPCG:  Solving for p_rgh, Initial residual = 1.52584e-05, Final residual = 9.68395e-08, No Iterations 82
time step continuity errors : sum local = 7.38111e-08, global = 1.70813e-09, cumulative = -5.53963e-06
ExecutionTime = 0.03 s  ClockTime = 0 s

Courant Number mean: 0.00147622 max: 0.0632683
Interface Courant Number mean: 1.59546e-05 max: 0.0632683
deltaT = 0.001
Time = 0.003

smoothSolver:  Solving for alpha.water, Initial residual = 6.43393e-05, Final residual = 1.94206e-09, No Iterations 1
Phase-1 volume fraction = 0.124752  Min(alpha.water) = 0  Max(alpha.water) = 1
MULES: Correcting alpha.water
MULES: Correcting alpha.water
Phase-1 volume fraction = 0.124752  Min(alpha.water) = -1.21843e-18  Max(alpha.water) = 1
DICPCG:  Solving for p_rgh, Initial residual = 0.00181044, Final residual = 4.08085e-05, No Iterations 2
time step continuity errors : sum local = 2.81381e-05, global = -8.0645e-10, cumulative = -5.54043e-06
DICPCG:  Solving for p_rgh, Initial residual = 4.11742e-05, Final residual = 1.92203e-06, No Iterations 65
time step continuity errors : sum local = 1.32455e-06, global = -7.35823e-08, cumulative = -5.61402e-06
DICPCG:  Solving for p_rgh, Initial residual = 2.09431e-06, Final residual = 8.62175e-08, No Iterations 68
time step continuity errors : sum local = 5.94285e-08, global = -2.89497e-09, cumulative = -5.61691e-06
ExecutionTime = 0.04 s  ClockTime = 0 s

Courant Number mean: 0.00212624 max: 0.0489819
Interface Courant Number mean: 1.16234e-05 max: 0.0412533
deltaT = 0.001
Time = 0.004

smoothSolver:  Solving for alpha.water, Initial residual = 6.88499e-05, Final residual = 1.60052e-09, No Iterations 1
Phase-1 volume fraction = 0.124752  Min(alpha.water) = 0  Max(alpha.water) = 1
MULES: Correcting alpha.water
MULES: Correcting alpha.water
Phase-1 volume fraction = 0.124752  Min(alpha.water) = -2.92522e-18  Max(alpha.water) = 1
DICPCG:  Solving for p_rgh, Initial residual = 0.00206883, Final residual = 3.52381e-05, No Iterations 2
time step continuity errors : sum local = 2.23824e-05, global = -6.72036e-09, cumulative = -5.62363e-06
DICPCG:  Solving for p_rgh, Initial residual = 3.55969e-05, Final residual = 1.61285e-06, No Iterations 24
time step continuity errors : sum local = 1.02332e-06, global = -8.68716e-08, cumulative = -5.7105e-06
DICPCG:  Solving for p_rgh, Initial residual = 1.70869e-06, Final residual = 8.84199e-08, No Iterations 68
time step continuity errors : sum local = 5.61074e-08, global = 3.70741e-09, cumulative = -5.7068e-06
ExecutionTime = 0.05 s  ClockTime = 0 s

Courant Number mean: 0.00279991 max: 0.0478951
Interface Courant Number mean: 2.04063e-05 max: 0.0369674
deltaT = 0.001
Time = 0.005

smoothSolver:  Solving for alpha.water, Initial residual = 8.27202e-05, Final residual = 2.67395e-09, No Iterations 1
Phase-1 volume fraction = 0.124752  Min(alpha.water) = 0  Max(alpha.water) = 1
MULES: Correcting alpha.water
MULES: Correcting alpha.water
Phase-1 volume fraction = 0.124752  Min(alpha.water) = -8.73799e-15  Max(alpha.water) = 1
DICPCG:  Solving for p_rgh, Initial residual = 0.00255698, Final residual = 0.000111102, No Iterations 1
time step continuity errors : sum local = 6.63693e-05, global = 1.04434e-08, cumulative = -5.69635e-06
DICPCG:  Solving for p_rgh, Initial residual = 0.000112043, Final residual = 5.4457e-06, No Iterations 8
time step continuity errors : sum local = 3.24816e-06, global = 8.96972e-09, cumulative = -5.68738e-06
DICPCG:  Solving for p_rgh, Initial residual = 5.52233e-06, Final residual = 9.29925e-08, No Iterations 83
time step continuity errors : sum local = 5.54637e-08, global = 2.42326e-09, cumulative = -5.68496e-06
ExecutionTime = 0.06 s  ClockTime = 1 s

Courant Number mean: 0.003482 max: 0.0491678
Interface Courant Number mean: 5.62839e-05 max: 0.036239
deltaT = 0.001
Time = 0.006

smoothSolver:  Solving for alpha.water, Initial residual = 9.83874e-05, Final residual = 4.7211e-09, No Iterations 1
Phase-1 volume fraction = 0.124752  Min(alpha.water) = 0  Max(alpha.water) = 1
MULES: Correcting alpha.water
MULES: Correcting alpha.water
Phase-1 volume fraction = 0.124752  Min(alpha.water) = -3.36478e-12  Max(alpha.water) = 1
DICPCG:  Solving for p_rgh, Initial residual = 0.00311894, Final residual = 0.000112439, No Iterations 1
time step continuity errors : sum local = 6.41861e-05, global = 2.20674e-09, cumulative = -5.68275e-06
DICPCG:  Solving for p_rgh, Initial residual = 0.000113303, Final residual = 5.09109e-06, No Iterations 8
time step continuity errors : sum local = 2.90048e-06, global = 2.22004e-09, cumulative = -5.68053e-06
DICPCG:  Solving for p_rgh, Initial residual = 5.21844e-06, Final residual = 9.72673e-08, No Iterations 52
time step continuity errors : sum local = 5.54118e-08, global = -1.6149e-08, cumulative = -5.69668e-06
ExecutionTime = 0.07 s  ClockTime = 1 s

Courant Number mean: 0.00416527 max: 0.0512402
Interface Courant Number mean: 7.71054e-05 max: 0.0392899
deltaT = 0.001
Time = 0.007

smoothSolver:  Solving for alpha.water, Initial residual = 0.00011459, Final residual = 7.69466e-09, No Iterations 1
Phase-1 volume fraction = 0.124752  Min(alpha.water) = 0  Max(alpha.water) = 1
MULES: Correcting alpha.water
MULES: Correcting alpha.water
Phase-1 volume fraction = 0.124752  Min(alpha.water) = -8.82051e-12  Max(alpha.water) = 1
DICPCG:  Solving for p_rgh, Initial residual = 0.00369715, Final residual = 0.000113279, No Iterations 1
time step continuity errors : sum local = 6.24657e-05, global = -3.42333e-08, cumulative = -5.73092e-06
DICPCG:  Solving for p_rgh, Initial residual = 0.000114069, Final residual = 5.16122e-06, No Iterations 8
time step continuity errors : sum local = 2.83917e-06, global = -3.37749e-08, cumulative = -5.76469e-06
DICPCG:  Solving for p_rgh, Initial residual = 5.37882e-06, Final residual = 9.05539e-08, No Iterations 75
time step continuity errors : sum local = 4.98107e-08, global = 2.12736e-09, cumulative = -5.76256e-06
ExecutionTime = 0.08 s  ClockTime = 1 s

Courant Number mean: 0.00484885 max: 0.0542213
Interface Courant Number mean: 9.73128e-05 max: 0.0448199
deltaT = 0.001
Time = 0.008

smoothSolver:  Solving for alpha.water, Initial residual = 0.000130973, Final residual = 5.97542e-14, No Iterations 2
Phase-1 volume fraction = 0.124752  Min(alpha.water) = 0  Max(alpha.water) = 1
MULES: Correcting alpha.water
MULES: Correcting alpha.water
Phase-1 volume fraction = 0.124752  Min(alpha.water) = -1.82456e-11  Max(alpha.water) = 1
DICPCG:  Solving for p_rgh, Initial residual = 0.00428913, Final residual = 0.000113084, No Iterations 1
time step continuity errors : sum local = 6.0673e-05, global = 2.12308e-08, cumulative = -5.74133e-06
DICPCG:  Solving for p_rgh, Initial residual = 0.000113823, Final residual = 5.08138e-06, No Iterations 8
time step continuity errors : sum local = 2.71868e-06, global = 2.08874e-08, cumulative = -5.72044e-06
DICPCG:  Solving for p_rgh, Initial residual = 5.39211e-06, Final residual = 9.22795e-08, No Iterations 46
time step continuity errors : sum local = 4.93696e-08, global = -1.24141e-09, cumulative = -5.72169e-06
ExecutionTime = 0.08 s  ClockTime = 1 s

Courant Number mean: 0.00553091 max: 0.0573686
Interface Courant Number mean: 0.000117591 max: 0.0499555
deltaT = 0.001
Time = 0.009

smoothSolver:  Solving for alpha.water, Initial residual = 0.000147415, Final residual = 9.67018e-14, No Iterations 2
Phase-1 volume fraction = 0.124752  Min(alpha.water) = 0  Max(alpha.water) = 1
MULES: Correcting alpha.water
MULES: Correcting alpha.water
Phase-1 volume fraction = 0.124752  Min(alpha.water) = -3.26292e-11  Max(alpha.water) = 1
DICPCG:  Solving for p_rgh, Initial residual = 0.00488986, Final residual = 0.000112528, No Iterations 1
time step continuity errors : sum local = 5.90373e-05, global = -4.10218e-09, cumulative = -5.72579e-06
DICPCG:  Solving for p_rgh, Initial residual = 0.000113241, Final residual = 5.05455e-06, No Iterations 8
time step continuity errors : sum local = 2.64369e-06, global = -4.51104e-09, cumulative = -5.7303e-06
DICPCG:  Solving for p_rgh, Initial residual = 5.47548e-06, Final residual = 8.43795e-08, No Iterations 47
time step continuity errors : sum local = 4.4131e-08, global = -9.8666e-09, cumulative = -5.74017e-06
ExecutionTime = 0.09 s  ClockTime = 1 s

Courant Number mean: 0.00621059 max: 0.0605603
Interface Courant Number mean: 0.000139213 max: 0.0547796
deltaT = 0.001
Time = 0.01

smoothSolver:  Solving for alpha.water, Initial residual = 0.000163858, Final residual = 1.48955e-13, No Iterations 2
Phase-1 volume fraction = 0.124752  Min(alpha.water) = 0  Max(alpha.water) = 1
MULES: Correcting alpha.water
MULES: Correcting alpha.water
Phase-1 volume fraction = 0.124752  Min(alpha.water) = -5.35155e-11  Max(alpha.water) = 1
DICPCG:  Solving for p_rgh, Initial residual = 0.00549601, Final residual = 0.000111801, No Iterations 1
time step continuity errors : sum local = 5.75298e-05, global = -1.77287e-08, cumulative = -5.75789e-06
DICPCG:  Solving for p_rgh, Initial residual = 0.000112509, Final residual = 5.07084e-06, No Iterations 8
time step continuity errors : sum local = 2.60036e-06, global = -1.75576e-08, cumulative = -5.77545e-06
DICPCG:  Solving for p_rgh, Initial residual = 5.61414e-06, Final residual = 8.69085e-08, No Iterations 73
time step continuity errors : sum local = 4.4565e-08, global = 1.71163e-09, cumulative = -5.77374e-06
ExecutionTime = 0.1 s  ClockTime = 1 s

Courant Number mean: 0.00688923 max: 0.0655148
Interface Courant Number mean: 0.000160223 max: 0.0593552
deltaT = 0.001
Time = 0.011

smoothSolver:  Solving for alpha.water, Initial residual = 0.000180268, Final residual = 2.19285e-13, No Iterations 2
Phase-1 volume fraction = 0.124752  Min(alpha.water) = 0  Max(alpha.water) = 1
MULES: Correcting alpha.water
MULES: Correcting alpha.water
Phase-1 volume fraction = 0.124752  Min(alpha.water) = -8.27563e-11  Max(alpha.water) = 1
DICPCG:  Solving for p_rgh, Initial residual = 0.00610913, Final residual = 0.000111306, No Iterations 1
time step continuity errors : sum local = 5.62854e-05, global = 1.40735e-08, cumulative = -5.75967e-06
DICPCG:  Solving for p_rgh, Initial residual = 0.000112072, Final residual = 5.12362e-06, No Iterations 8
time step continuity errors : sum local = 2.58113e-06, global = 1.35055e-08, cumulative = -5.74616e-06
DICPCG:  Solving for p_rgh, Initial residual = 5.78678e-06, Final residual = 8.52682e-08, No Iterations 47
time step continuity errors : sum local = 4.29535e-08, global = -1.025e-08, cumulative = -5.75641e-06
ExecutionTime = 0.11 s  ClockTime = 1 s

Courant Number mean: 0.00756682 max: 0.0704484
Interface Courant Number mean: 0.000182197 max: 0.063732
deltaT = 0.001
Time = 0.012

smoothSolver:  Solving for alpha.water, Initial residual = 0.000196626, Final residual = 3.10839e-13, No Iterations 2
Phase-1 volume fraction = 0.124752  Min(alpha.water) = 0  Max(alpha.water) = 1
MULES: Correcting alpha.water
MULES: Correcting alpha.water
Phase-1 volume fraction = 0.124752  Min(alpha.water) = -1.2178e-10  Max(alpha.water) = 1
DICPCG:  Solving for p_rgh, Initial residual = 0.00673043, Final residual = 0.000111165, No Iterations 1
time step continuity errors : sum local = 5.53205e-05, global = -2.14788e-08, cumulative = -5.77789e-06
DICPCG:  Solving for p_rgh, Initial residual = 0.000111872, Final residual = 5.17941e-06, No Iterations 8
time step continuity errors : sum local = 2.56696e-06, global = -2.11063e-08, cumulative = -5.799e-06
DICPCG:  Solving for p_rgh, Initial residual = 5.96558e-06, Final residual = 9.48344e-08, No Iterations 76
time step continuity errors : sum local = 4.69985e-08, global = 2.27334e-09, cumulative = -5.79672e-06
ExecutionTime = 0.12 s  ClockTime = 1 s

Courant Number mean: 0.00824433 max: 0.0753491
Interface Courant Number mean: 0.000206154 max: 0.0679481
deltaT = 0.001
Time = 0.013

smoothSolver:  Solving for alpha.water, Initial residual = 0.00021292, Final residual = 4.26028e-13, No Iterations 2
Phase-1 volume fraction = 0.124752  Min(alpha.water) = 0  Max(alpha.water) = 1
MULES: Correcting alpha.water
MULES: Correcting alpha.water
Phase-1 volume fraction = 0.124752  Min(alpha.water) = -1.71834e-10  Max(alpha.water) = 1
DICPCG:  Solving for p_rgh, Initial residual = 0.00736126, Final residual = 0.000111559, No Iterations 1
time step continuity errors : sum local = 5.46925e-05, global = 1.54641e-08, cumulative = -5.78126e-06
DICPCG:  Solving for p_rgh, Initial residual = 0.000112285, Final residual = 5.22187e-06, No Iterations 8
time step continuity errors : sum local = 2.54881e-06, global = 1.47306e-08, cumulative = -5.76653e-06
DICPCG:  Solving for p_rgh, Initial residual = 6.13415e-06, Final residual = 9.23935e-08, No Iterations 47
time step continuity errors : sum local = 4.50955e-08, global = -1.188e-08, cumulative = -5.77841e-06
ExecutionTime = 0.13 s  ClockTime = 1 s

Courant Number mean: 0.00892141 max: 0.0801533
Interface Courant Number mean: 0.000235186 max: 0.0720363
deltaT = 0.001
Time = 0.014

smoothSolver:  Solving for alpha.water, Initial residual = 0.000229139, Final residual = 5.67504e-13, No Iterations 2
Phase-1 volume fraction = 0.124752  Min(alpha.water) = 0  Max(alpha.water) = 1
MULES: Correcting alpha.water
MULES: Correcting alpha.water
Phase-1 volume fraction = 0.124752  Min(alpha.water) = -2.36357e-10  Max(alpha.water) = 1
DICPCG:  Solving for p_rgh, Initial residual = 0.00800479, Final residual = 0.00011281, No Iterations 1
time step continuity errors : sum local = 5.4517e-05, global = -2.51742e-08, cumulative = -5.80358e-06
DICPCG:  Solving for p_rgh, Initial residual = 0.000113593, Final residual = 5.3468e-06, No Iterations 8
time step continuity errors : sum local = 2.57172e-06, global = -2.47004e-08, cumulative = -5.82828e-06
DICPCG:  Solving for p_rgh, Initial residual = 6.41737e-06, Final residual = 9.47169e-08, No Iterations 73
time step continuity errors : sum local = 4.55552e-08, global = 1.5327e-09, cumulative = -5.82675e-06
ExecutionTime = 0.14 s  ClockTime = 1 s

Courant Number mean: 0.00959881 max: 0.0847582
Interface Courant Number mean: 0.000255932 max: 0.0758998
deltaT = 0.001
Time = 0.015

smoothSolver:  Solving for alpha.water, Initial residual = 0.000245275, Final residual = 7.3732e-13, No Iterations 2
Phase-1 volume fraction = 0.124752  Min(alpha.water) = 0  Max(alpha.water) = 1
MULES: Correcting alpha.water
MULES: Correcting alpha.water
Phase-1 volume fraction = 0.124752  Min(alpha.water) = -2.77964e-10  Max(alpha.water) = 1
DICPCG:  Solving for p_rgh, Initial residual = 0.00866502, Final residual = 0.000115191, No Iterations 1
time step continuity errors : sum local = 5.48948e-05, global = 1.60504e-08, cumulative = -5.8107e-06
DICPCG:  Solving for p_rgh, Initial residual = 0.000116096, Final residual = 5.50838e-06, No Iterations 8
time step continuity errors : sum local = 2.61179e-06, global = 1.57214e-08, cumulative = -5.79498e-06
DICPCG:  Solving for p_rgh, Initial residual = 6.73345e-06, Final residual = 9.65222e-08, No Iterations 43
time step continuity errors : sum local = 4.5764e-08, global = -5.64038e-09, cumulative = -5.80062e-06
ExecutionTime = 0.14 s  ClockTime = 1 s

Courant Number mean: 0.0102758 max: 0.088954
Interface Courant Number mean: 0.000274436 max: 0.0795885
deltaT = 0.001
Time = 0.016

smoothSolver:  Solving for alpha.water, Initial residual = 0.00026164, Final residual = 9.37328e-13, No Iterations 2
Phase-1 volume fraction = 0.124752  Min(alpha.water) = 0  Max(alpha.water) = 1
MULES: Correcting alpha.water
MULES: Correcting alpha.water
Phase-1 volume fraction = 0.124752  Min(alpha.water) = -2.90523e-10  Max(alpha.water) = 1
DICPCG:  Solving for p_rgh, Initial residual = 0.0093267, Final residual = 0.000117018, No Iterations 1
time step continuity errors : sum local = 5.5017e-05, global = -1.19356e-08, cumulative = -5.81255e-06
DICPCG:  Solving for p_rgh, Initial residual = 0.000118193, Final residual = 5.70409e-06, No Iterations 8
time step continuity errors : sum local = 2.66733e-06, global = -1.2411e-08, cumulative = -5.82497e-06
DICPCG:  Solving for p_rgh, Initial residual = 7.07657e-06, Final residual = 9.91438e-08, No Iterations 72
time step continuity errors : sum local = 4.63597e-08, global = 1.37727e-09, cumulative = -5.82359e-06
ExecutionTime = 0.15 s  ClockTime = 1 s

Courant Number mean: 0.0109539 max: 0.0939804
Interface Courant Number mean: 0.000300534 max: 0.0882136
deltaT = 0.001
Time = 0.017

smoothSolver:  Solving for alpha.water, Initial residual = 0.000279275, Final residual = 1.16954e-12, No Iterations 2
Phase-1 volume fraction = 0.124752  Min(alpha.water) = 0  Max(alpha.water) = 1
MULES: Correcting alpha.water
MULES: Correcting alpha.water
Phase-1 volume fraction = 0.124752  Min(alpha.water) = -2.58226e-10  Max(alpha.water) = 1
DICPCG:  Solving for p_rgh, Initial residual = 0.00981716, Final residual = 9.89712e-05, No Iterations 1
time step continuity errors : sum local = 4.60101e-05, global = 9.31838e-09, cumulative = -5.81427e-06
DICPCG:  Solving for p_rgh, Initial residual = 0.00010062, Final residual = 4.35865e-06, No Iterations 16
time step continuity errors : sum local = 2.01444e-06, global = 1.51984e-08, cumulative = -5.79907e-06
DICPCG:  Solving for p_rgh, Initial residual = 5.51187e-06, Final residual = 8.75759e-08, No Iterations 75
time step continuity errors : sum local = 4.04818e-08, global = 2.31528e-09, cumulative = -5.79676e-06
ExecutionTime = 0.16 s  ClockTime = 1 s

Courant Number mean: 0.0116516 max: 0.104447
Interface Courant Number mean: 0.000320142 max: 0.104447
deltaT = 0.001
Time = 0.018

smoothSolver:  Solving for alpha.water, Initial residual = 0.000297402, Final residual = 2.19575e-12, No Iterations 2
Phase-1 volume fraction = 0.124752  Min(alpha.water) = 0  Max(alpha.water) = 1
MULES: Correcting alpha.water
MULES: Correcting alpha.water
Phase-1 volume fraction = 0.124752  Min(alpha.water) = -1.72289e-10  Max(alpha.water) = 1
DICPCG:  Solving for p_rgh, Initial residual = 0.0104904, Final residual = 0.000100868, No Iterations 1
time step continuity errors : sum local = 4.61854e-05, global = 4.25401e-09, cumulative = -5.7925e-06
DICPCG:  Solving for p_rgh, Initial residual = 0.000102096, Final residual = 5.08943e-06, No Iterations 8
time step continuity errors : sum local = 2.31579e-06, global = 1.93712e-09, cumulative = -5.79057e-06
DICPCG:  Solving for p_rgh, Initial residual = 6.42725e-06, Final residual = 9.27722e-08, No Iterations 67
time step continuity errors : sum local = 4.22128e-08, global = 4.503e-10, cumulative = -5.79011e-06
ExecutionTime = 0.17 s  ClockTime = 1 s

Courant Number mean: 0.0123433 max: 0.114589
Interface Courant Number mean: 0.000339677 max: 0.114589
deltaT = 0.001
Time = 0.019

smoothSolver:  Solving for alpha.water, Initial residual = 0.000314815, Final residual = 1.65894e-11, No Iterations 2
Phase-1 volume fraction = 0.124752  Min(alpha.water) = 0  Max(alpha.water) = 1
MULES: Correcting alpha.water
MULES: Correcting alpha.water
Phase-1 volume fraction = 0.124752  Min(alpha.water) = -2.5402e-11  Max(alpha.water) = 1
DICPCG:  Solving for p_rgh, Initial residual = 0.0111937, Final residual = 0.000100181, No Iterations 1
time step continuity errors : sum local = 4.51586e-05, global = -1.59379e-10, cumulative = -5.79027e-06
DICPCG:  Solving for p_rgh, Initial residual = 0.000101281, Final residual = 5.03816e-06, No Iterations 13
time step continuity errors : sum local = 2.2559e-06, global = 3.62942e-09, cumulative = -5.78664e-06
DICPCG:  Solving for p_rgh, Initial residual = 6.36471e-06, Final residual = 9.80701e-08, No Iterations 39
time step continuity errors : sum local = 4.39182e-08, global = -3.51791e-09, cumulative = -5.79016e-06
ExecutionTime = 0.18 s  ClockTime = 1 s

Courant Number mean: 0.0130312 max: 0.120975
Interface Courant Number mean: 0.000366463 max: 0.120975
deltaT = 0.001
Time = 0.02

smoothSolver:  Solving for alpha.water, Initial residual = 0.00033175, Final residual = 3.32495e-11, No Iterations 2
Phase-1 volume fraction = 0.124752  Min(alpha.water) = 0  Max(alpha.water) = 1
MULES: Correcting alpha.water
MULES: Correcting alpha.water
Phase-1 volume fraction = 0.124752  Min(alpha.water) = -6.65644e-12  Max(alpha.water) = 1
DICPCG:  Solving for p_rgh, Initial residual = 0.0119117, Final residual = 0.000101099, No Iterations 1
time step continuity errors : sum local = 4.48433e-05, global = -6.46984e-09, cumulative = -5.79663e-06
DICPCG:  Solving for p_rgh, Initial residual = 0.000102499, Final residual = 4.47853e-06, No Iterations 15
time step continuity errors : sum local = 1.97233e-06, global = 5.36377e-09, cumulative = -5.79127e-06
DICPCG:  Solving for p_rgh, Initial residual = 5.71081e-06, Final residual = 9.71411e-08, No Iterations 39
time step continuity errors : sum local = 4.27905e-08, global = -2.10549e-09, cumulative = -5.79337e-06
ExecutionTime = 0.19 s  ClockTime = 1 s

Courant Number mean: 0.0137161 max: 0.12541
Interface Courant Number mean: 0.000385506 max: 0.12541
deltaT = 0.001
Time = 0.021

smoothSolver:  Solving for alpha.water, Initial residual = 0.000348404, Final residual = 5.2947e-11, No Iterations 2
Phase-1 volume fraction = 0.124752  Min(alpha.water) = 0  Max(alpha.water) = 1
MULES: Correcting alpha.water
MULES: Correcting alpha.water
Phase-1 volume fraction = 0.124752  Min(alpha.water) = -8.94513e-12  Max(alpha.water) = 1
DICPCG:  Solving for p_rgh, Initial residual = 0.0126535, Final residual = 0.000103018, No Iterations 1
time step continuity errors : sum local = 4.49239e-05, global = 5.13072e-10, cumulative = -5.79286e-06
DICPCG:  Solving for p_rgh, Initial residual = 0.000104628, Final residual = 4.673e-06, No Iterations 15
time step continuity errors : sum local = 2.0223e-06, global = 1.41779e-08, cumulative = -5.77868e-06
DICPCG:  Solving for p_rgh, Initial residual = 6.03455e-06, Final residual = 9.0579e-08, No Iterations 40
time step continuity errors : sum local = 3.92094e-08, global = 6.94915e-09, cumulative = -5.77173e-06
ExecutionTime = 0.19 s  ClockTime = 1 s

Courant Number mean: 0.0143976 max: 0.131769
Interface Courant Number mean: 0.000417277 max: 0.128326
deltaT = 0.001
Time = 0.022

smoothSolver:  Solving for alpha.water, Initial residual = 0.000364827, Final residual = 7.44586e-11, No Iterations 2
Phase-1 volume fraction = 0.124752  Min(alpha.water) = 0  Max(alpha.water) = 1
MULES: Correcting alpha.water
MULES: Correcting alpha.water
Phase-1 volume fraction = 0.124752  Min(alpha.water) = -1.15477e-11  Max(alpha.water) = 1
DICPCG:  Solving for p_rgh, Initial residual = 0.0134362, Final residual = 0.00010878, No Iterations 1
time step continuity errors : sum local = 4.65667e-05, global = 1.71518e-08, cumulative = -5.75458e-06
DICPCG:  Solving for p_rgh, Initial residual = 0.000110841, Final residual = 5.01121e-06, No Iterations 15
time step continuity errors : sum local = 2.12779e-06, global = 3.06308e-08, cumulative = -5.72395e-06
DICPCG:  Solving for p_rgh, Initial residual = 6.52725e-06, Final residual = 9.05811e-08, No Iterations 62
time step continuity errors : sum local = 3.84726e-08, global = 3.56005e-09, cumulative = -5.72039e-06
ExecutionTime = 0.2 s  ClockTime = 1 s

Courant Number mean: 0.0150724 max: 0.136934
Interface Courant Number mean: 0.000436178 max: 0.12858
deltaT = 0.001
Time = 0.023

smoothSolver:  Solving for alpha.water, Initial residual = 0.000380891, Final residual = 9.67008e-11, No Iterations 2
Phase-1 volume fraction = 0.124752  Min(alpha.water) = 0  Max(alpha.water) = 1
MULES: Correcting alpha.water
MULES: Correcting alpha.water
Phase-1 volume fraction = 0.124752  Min(alpha.water) = -2.01586e-11  Max(alpha.water) = 1
DICPCG:  Solving for p_rgh, Initial residual = 0.0142306, Final residual = 0.00011338, No Iterations 1
time step continuity errors : sum local = 4.76041e-05, global = 1.3473e-09, cumulative = -5.71904e-06
DICPCG:  Solving for p_rgh, Initial residual = 0.00011563, Final residual = 5.33416e-06, No Iterations 15
time step continuity errors : sum local = 2.22039e-06, global = 1.3285e-08, cumulative = -5.70576e-06
DICPCG:  Solving for p_rgh, Initial residual = 7.01977e-06, Final residual = 8.84212e-08, No Iterations 45
time step continuity errors : sum local = 3.68183e-08, global = 7.82016e-09, cumulative = -5.69794e-06
ExecutionTime = 0.21 s  ClockTime = 1 s

Courant Number mean: 0.0157433 max: 0.141268
Interface Courant Number mean: 0.000463186 max: 0.128621
deltaT = 0.001
Time = 0.024

smoothSolver:  Solving for alpha.water, Initial residual = 0.00039679, Final residual = 1.19068e-10, No Iterations 2
Phase-1 volume fraction = 0.124752  Min(alpha.water) = 0  Max(alpha.water) = 1
MULES: Correcting alpha.water
MULES: Correcting alpha.water
Phase-1 volume fraction = 0.124752  Min(alpha.water) = -1.89098e-10  Max(alpha.water) = 1
DICPCG:  Solving for p_rgh, Initial residual = 0.0150518, Final residual = 0.000119937, No Iterations 1
time step continuity errors : sum local = 4.93406e-05, global = 1.3524e-08, cumulative = -5.68442e-06
DICPCG:  Solving for p_rgh, Initial residual = 0.000122527, Final residual = 5.80682e-06, No Iterations 15
time step continuity errors : sum local = 2.36708e-06, global = 3.23364e-08, cumulative = -5.65208e-06
DICPCG:  Solving for p_rgh, Initial residual = 7.75441e-06, Final residual = 9.52399e-08, No Iterations 64
time step continuity errors : sum local = 3.88376e-08, global = 3.24116e-09, cumulative = -5.64884e-06
ExecutionTime = 0.22 s  ClockTime = 1 s

Courant Number mean: 0.0164085 max: 0.144708
Interface Courant Number mean: 0.000490124 max: 0.133376
deltaT = 0.001
Time = 0.025

smoothSolver:  Solving for alpha.water, Initial residual = 0.00041251, Final residual = 1.41009e-10, No Iterations 2
Phase-1 volume fraction = 0.124752  Min(alpha.water) = 0  Max(alpha.water) = 1
MULES: Correcting alpha.water
MULES: Correcting alpha.water
Phase-1 volume fraction = 0.124752  Min(alpha.water) = -5.05353e-10  Max(alpha.water) = 1
DICPCG:  Solving for p_rgh, Initial residual = 0.0158899, Final residual = 0.000129406, No Iterations 1
time step continuity errors : sum local = 5.2109e-05, global = -4.45643e-10, cumulative = -5.64928e-06
DICPCG:  Solving for p_rgh, Initial residual = 0.000132425, Final residual = 6.54893e-06, No Iterations 15
time step continuity errors : sum local = 2.61172e-06, global = 1.13992e-08, cumulative = -5.63788e-06
DICPCG:  Solving for p_rgh, Initial residual = 8.99813e-06, Final residual = 9.98312e-08, No Iterations 42
time step continuity errors : sum local = 3.98286e-08, global = 7.32474e-09, cumulative = -5.63056e-06
ExecutionTime = 0.23 s  ClockTime = 1 s

Courant Number mean: 0.0170699 max: 0.147234
Interface Courant Number mean: 0.000517139 max: 0.137396
deltaT = 0.001
Time = 0.026

smoothSolver:  Solving for alpha.water, Initial residual = 0.000428037, Final residual = 1.62056e-10, No Iterations 2
Phase-1 volume fraction = 0.124752  Min(alpha.water) = 0  Max(alpha.water) = 1
MULES: Correcting alpha.water
MULES: Correcting alpha.water
Phase-1 volume fraction = 0.124752  Min(alpha.water) = -8.01008e-10  Max(alpha.water) = 1
DICPCG:  Solving for p_rgh, Initial residual = 0.0166822, Final residual = 0.000139108, No Iterations 1
time step continuity errors : sum local = 5.478e-05, global = 1.25565e-08, cumulative = -5.618e-06
DICPCG:  Solving for p_rgh, Initial residual = 0.000142334, Final residual = 5.53204e-06, No Iterations 16
time step continuity errors : sum local = 2.15636e-06, global = 4.26175e-08, cumulative = -5.57539e-06
DICPCG:  Solving for p_rgh, Initial residual = 8.58259e-06, Final residual = 9.73235e-08, No Iterations 68
time step continuity errors : sum local = 3.79548e-08, global = 3.32092e-09, cumulative = -5.57206e-06
ExecutionTime = 0.24 s  ClockTime = 1 s

Courant Number mean: 0.0177273 max: 0.14929
Interface Courant Number mean: 0.000535443 max: 0.140925
deltaT = 0.001
Time = 0.027

smoothSolver:  Solving for alpha.water, Initial residual = 0.000443967, Final residual = 1.81495e-10, No Iterations 2
Phase-1 volume fraction = 0.124752  Min(alpha.water) = 0  Max(alpha.water) = 1
MULES: Correcting alpha.water
MULES: Correcting alpha.water
Phase-1 volume fraction = 0.124752  Min(alpha.water) = -1.06777e-09  Max(alpha.water) = 1
DICPCG:  Solving for p_rgh, Initial residual = 0.0173983, Final residual = 0.000148423, No Iterations 1
time step continuity errors : sum local = 5.70988e-05, global = 4.70142e-10, cumulative = -5.57159e-06
DICPCG:  Solving for p_rgh, Initial residual = 0.00015206, Final residual = 6.12338e-06, No Iterations 16
time step continuity errors : sum local = 2.33066e-06, global = 2.84496e-08, cumulative = -5.54314e-06
DICPCG:  Solving for p_rgh, Initial residual = 9.44674e-06, Final residual = 9.80998e-08, No Iterations 41
time step continuity errors : sum local = 3.73601e-08, global = -9.13406e-09, cumulative = -5.55228e-06
ExecutionTime = 0.25 s  ClockTime = 1 s

Courant Number mean: 0.0183842 max: 0.154043
Interface Courant Number mean: 0.00056651 max: 0.144127
deltaT = 0.001
Time = 0.028

smoothSolver:  Solving for alpha.water, Initial residual = 0.000459459, Final residual = 2.14589e-10, No Iterations 2
Phase-1 volume fraction = 0.124752  Min(alpha.water) = 0  Max(alpha.water) = 1
MULES: Correcting alpha.water
MULES: Correcting alpha.water
Phase-1 volume fraction = 0.124752  Min(alpha.water) = -1.30034e-09  Max(alpha.water) = 1
DICPCG:  Solving for p_rgh, Initial residual = 0.0180539, Final residual = 0.000158248, No Iterations 1
time step continuity errors : sum local = 5.94214e-05, global = -2.02997e-08, cumulative = -5.57258e-06
DICPCG:  Solving for p_rgh, Initial residual = 0.000162584, Final residual = 6.73067e-06, No Iterations 16
time step continuity errors : sum local = 2.49971e-06, global = 1.73613e-08, cumulative = -5.55522e-06
DICPCG:  Solving for p_rgh, Initial residual = 1.04174e-05, Final residual = 9.82912e-08, No Iterations 70
time step continuity errors : sum local = 3.65279e-08, global = 1.3004e-09, cumulative = -5.55392e-06
ExecutionTime = 0.26 s  ClockTime = 1 s

Courant Number mean: 0.0190437 max: 0.159832
Interface Courant Number mean: 0.000594443 max: 0.146724
deltaT = 0.001
Time = 0.029

smoothSolver:  Solving for alpha.water, Initial residual = 0.000474729, Final residual = 2.87128e-10, No Iterations 2
Phase-1 volume fraction = 0.124752  Min(alpha.water) = 0  Max(alpha.water) = 1
MULES: Correcting alpha.water
MULES: Correcting alpha.water
Phase-1 volume fraction = 0.124752  Min(alpha.water) = -1.6129e-09  Max(alpha.water) = 1
DICPCG:  Solving for p_rgh, Initial residual = 0.0186601, Final residual = 0.000168967, No Iterations 1
time step continuity errors : sum local = 6.18849e-05, global = 1.29153e-08, cumulative = -5.541e-06
DICPCG:  Solving for p_rgh, Initial residual = 0.000173563, Final residual = 7.2844e-06, No Iterations 16
time step continuity errors : sum local = 2.63801e-06, global = 4.7986e-08, cumulative = -5.49302e-06
DICPCG:  Solving for p_rgh, Initial residual = 1.14187e-05, Final residual = 9.16789e-08, No Iterations 40
time step continuity errors : sum local = 3.32244e-08, global = -4.56537e-09, cumulative = -5.49758e-06
ExecutionTime = 0.27 s  ClockTime = 1 s

Courant Number mean: 0.0197044 max: 0.164456
Interface Courant Number mean: 0.000643355 max: 0.148185
deltaT = 0.001
Time = 0.03

smoothSolver:  Solving for alpha.water, Initial residual = 0.000490249, Final residual = 4.19736e-10, No Iterations 2
Phase-1 volume fraction = 0.124752  Min(alpha.water) = 0  Max(alpha.water) = 1
MULES: Correcting alpha.water
MULES: Correcting alpha.water
Phase-1 volume fraction = 0.124752  Min(alpha.water) = -1.77032e-09  Max(alpha.water) = 1
DICPCG:  Solving for p_rgh, Initial residual = 0.0192139, Final residual = 0.000180257, No Iterations 1
time step continuity errors : sum local = 6.43416e-05, global = -9.11654e-09, cumulative = -5.5067e-06
DICPCG:  Solving for p_rgh, Initial residual = 0.000184994, Final residual = 7.94542e-06, No Iterations 16
time step continuity errors : sum local = 2.80338e-06, global = 3.51277e-08, cumulative = -5.47157e-06
DICPCG:  Solving for p_rgh, Initial residual = 1.25753e-05, Final residual = 9.59232e-08, No Iterations 71
time step continuity errors : sum local = 3.38707e-08, global = 6.87611e-10, cumulative = -5.47088e-06
ExecutionTime = 0.28 s  ClockTime = 1 s

Courant Number mean: 0.0203664 max: 0.169425
Interface Courant Number mean: 0.000713503 max: 0.156132
deltaT = 0.001
Time = 0.031

smoothSolver:  Solving for alpha.water, Initial residual = 0.000506101, Final residual = 5.78469e-10, No Iterations 2
Phase-1 volume fraction = 0.124752  Min(alpha.water) = 0  Max(alpha.water) = 1
MULES: Correcting alpha.water
MULES: Correcting alpha.water
Phase-1 volume fraction = 0.124752  Min(alpha.water) = -1.65078e-09  Max(alpha.water) = 1
DICPCG:  Solving for p_rgh, Initial residual = 0.0197177, Final residual = 0.000192476, No Iterations 1
time step continuity errors : sum local = 6.69057e-05, global = 7.3771e-09, cumulative = -5.4635e-06
DICPCG:  Solving for p_rgh, Initial residual = 0.000198084, Final residual = 8.02398e-06, No Iterations 16
time step continuity errors : sum local = 2.75634e-06, global = 5.60939e-08, cumulative = -5.40741e-06
DICPCG:  Solving for p_rgh, Initial residual = 1.35228e-05, Final residual = 9.51235e-08, No Iterations 46
time step continuity errors : sum local = 3.27041e-08, global = -1.24206e-08, cumulative = -5.41983e-06
ExecutionTime = 0.28 s  ClockTime = 1 s

Courant Number mean: 0.0210285 max: 0.174979
Interface Courant Number mean: 0.000811707 max: 0.166264
deltaT = 0.001
Time = 0.032

smoothSolver:  Solving for alpha.water, Initial residual = 0.000521459, Final residual = 7.35832e-10, No Iterations 2
Phase-1 volume fraction = 0.124752  Min(alpha.water) = 0  Max(alpha.water) = 1
MULES: Correcting alpha.water
MULES: Correcting alpha.water
Phase-1 volume fraction = 0.124752  Min(alpha.water) = -1.5927e-09  Max(alpha.water) = 1
DICPCG:  Solving for p_rgh, Initial residual = 0.0201554, Final residual = 0.000205117, No Iterations 1
time step continuity errors : sum local = 6.93824e-05, global = -2.42929e-08, cumulative = -5.44412e-06
DICPCG:  Solving for p_rgh, Initial residual = 0.000211455, Final residual = 8.57099e-06, No Iterations 16
time step continuity errors : sum local = 2.86455e-06, global = 3.4139e-08, cumulative = -5.40999e-06
DICPCG:  Solving for p_rgh, Initial residual = 1.45785e-05, Final residual = 8.40148e-08, No Iterations 72
time step continuity errors : sum local = 2.81037e-08, global = 8.3713e-10, cumulative = -5.40915e-06
ExecutionTime = 0.29 s  ClockTime = 1 s

Courant Number mean: 0.0216919 max: 0.17996
Interface Courant Number mean: 0.000845292 max: 0.175085
deltaT = 0.001
Time = 0.033

smoothSolver:  Solving for alpha.water, Initial residual = 0.000537213, Final residual = 8.90155e-10, No Iterations 2
Phase-1 volume fraction = 0.124752  Min(alpha.water) = 0  Max(alpha.water) = 1
MULES: Correcting alpha.water
MULES: Correcting alpha.water
Phase-1 volume fraction = 0.124752  Min(alpha.water) = -1.47848e-09  Max(alpha.water) = 1
DICPCG:  Solving for p_rgh, Initial residual = 0.0205046, Final residual = 0.000216152, No Iterations 1
time step continuity errors : sum local = 7.10706e-05, global = 1.55715e-08, cumulative = -5.39358e-06
DICPCG:  Solving for p_rgh, Initial residual = 0.000222328, Final residual = 9.26939e-06, No Iterations 16
time step continuity errors : sum local = 3.01088e-06, global = 7.43488e-08, cumulative = -5.31923e-06
DICPCG:  Solving for p_rgh, Initial residual = 1.56058e-05, Final residual = 9.22077e-08, No Iterations 44
time step continuity errors : sum local = 2.99794e-08, global = -6.22796e-09, cumulative = -5.32546e-06
ExecutionTime = 0.3 s  ClockTime = 1 s

Courant Number mean: 0.0223554 max: 0.188089
Interface Courant Number mean: 0.000867805 max: 0.181387
deltaT = 0.001
Time = 0.034

smoothSolver:  Solving for alpha.water, Initial residual = 0.000552997, Final residual = 1.01574e-09, No Iterations 2
Phase-1 volume fraction = 0.124752  Min(alpha.water) = 0  Max(alpha.water) = 1
MULES: Correcting alpha.water
MULES: Correcting alpha.water
Phase-1 volume fraction = 0.124752  Min(alpha.water) = -1.42478e-09  Max(alpha.water) = 1
DICPCG:  Solving for p_rgh, Initial residual = 0.0207588, Final residual = 0.000227245, No Iterations 1
time step continuity errors : sum local = 7.25862e-05, global = -1.20942e-08, cumulative = -5.33755e-06
DICPCG:  Solving for p_rgh, Initial residual = 0.000233473, Final residual = 9.79485e-06, No Iterations 16
time step continuity errors : sum local = 3.09054e-06, global = 6.00899e-08, cumulative = -5.27746e-06
DICPCG:  Solving for p_rgh, Initial residual = 1.65155e-05, Final residual = 8.26893e-08, No Iterations 72
time step continuity errors : sum local = 2.61179e-08, global = -7.97652e-11, cumulative = -5.27754e-06
ExecutionTime = 0.31 s  ClockTime = 1 s

Courant Number mean: 0.0230176 max: 0.196343
Interface Courant Number mean: 0.000916829 max: 0.184755
deltaT = 0.001
Time = 0.035

smoothSolver:  Solving for alpha.water, Initial residual = 0.000569495, Final residual = 1.10219e-09, No Iterations 2
Phase-1 volume fraction = 0.124752  Min(alpha.water) = 0  Max(alpha.water) = 1
MULES: Correcting alpha.water
MULES: Correcting alpha.water
Phase-1 volume fraction = 0.124752  Min(alpha.water) = -1.33582e-09  Max(alpha.water) = 1
DICPCG:  Solving for p_rgh, Initial residual = 0.0209416, Final residual = 0.000241814, No Iterations 1
time step continuity errors : sum local = 7.50106e-05, global = 7.53911e-09, cumulative = -5.27e-06
DICPCG:  Solving for p_rgh, Initial residual = 0.000248232, Final residual = 1.06218e-05, No Iterations 16
time step continuity errors : sum local = 3.25477e-06, global = 8.30829e-08, cumulative = -5.18692e-06
DICPCG:  Solving for p_rgh, Initial residual = 1.77294e-05, Final residual = 9.8812e-08, No Iterations 44
time step continuity errors : sum local = 3.03117e-08, global = -7.1111e-09, cumulative = -5.19403e-06
ExecutionTime = 0.32 s  ClockTime = 1 s

Courant Number mean: 0.0236806 max: 0.203354
Interface Courant Number mean: 0.000941787 max: 0.186372
deltaT = 0.001
Time = 0.036

smoothSolver:  Solving for alpha.water, Initial residual = 0.000585281, Final residual = 1.19086e-09, No Iterations 2
Phase-1 volume fraction = 0.124752  Min(alpha.water) = 0  Max(alpha.water) = 1
MULES: Correcting alpha.water
MULES: Correcting alpha.water
Phase-1 volume fraction = 0.124752  Min(alpha.water) = -3.79428e-10  Max(alpha.water) = 1
DICPCG:  Solving for p_rgh, Initial residual = 0.0210366, Final residual = 0.000260973, No Iterations 1
time step continuity errors : sum local = 7.86022e-05, global = -1.29879e-08, cumulative = -5.20702e-06
DICPCG:  Solving for p_rgh, Initial residual = 0.000268308, Final residual = 1.14376e-05, No Iterations 16
time step continuity errors : sum local = 3.40335e-06, global = 7.58423e-08, cumulative = -5.13117e-06
DICPCG:  Solving for p_rgh, Initial residual = 1.9282e-05, Final residual = 9.87794e-08, No Iterations 72
time step continuity errors : sum local = 2.94276e-08, global = -4.67523e-10, cumulative = -5.13164e-06
ExecutionTime = 0.32 s  ClockTime = 1 s

Courant Number mean: 0.0243462 max: 0.20947
Interface Courant Number mean: 0.000976363 max: 0.186744
deltaT = 0.001
Time = 0.037

smoothSolver:  Solving for alpha.water, Initial residual = 0.000601158, Final residual = 1.34104e-09, No Iterations 2
Phase-1 volume fraction = 0.124752  Min(alpha.water) = 0  Max(alpha.water) = 1
MULES: Correcting alpha.water
MULES: Correcting alpha.water
Phase-1 volume fraction = 0.124752  Min(alpha.water) = -1.2451e-10  Max(alpha.water) = 1
DICPCG:  Solving for p_rgh, Initial residual = 0.0210097, Final residual = 0.000288733, No Iterations 1
time step continuity errors : sum local = 8.45034e-05, global = 7.64548e-09, cumulative = -5.124e-06
DICPCG:  Solving for p_rgh, Initial residual = 0.000297314, Final residual = 1.25801e-05, No Iterations 16
time step continuity errors : sum local = 3.63946e-06, global = 1.02601e-07, cumulative = -5.0214e-06
DICPCG:  Solving for p_rgh, Initial residual = 2.15737e-05, Final residual = 9.4676e-08, No Iterations 73
time step continuity errors : sum local = 2.74235e-08, global = -4.58886e-10, cumulative = -5.02185e-06
ExecutionTime = 0.33 s  ClockTime = 1 s

Courant Number mean: 0.0250166 max: 0.212871
Interface Courant Number mean: 0.00101336 max: 0.1852
deltaT = 0.001
Time = 0.038

smoothSolver:  Solving for alpha.water, Initial residual = 0.000617769, Final residual = 1.60629e-09, No Iterations 2
Phase-1 volume fraction = 0.124752  Min(alpha.water) = 0  Max(alpha.water) = 1
MULES: Correcting alpha.water
MULES: Correcting alpha.water
Phase-1 volume fraction = 0.124752  Min(alpha.water) = -5.84187e-11  Max(alpha.water) = 1
DICPCG:  Solving for p_rgh, Initial residual = 0.0207723, Final residual = 0.000328269, No Iterations 1
time step continuity errors : sum local = 9.34939e-05, global = 9.59349e-10, cumulative = -5.0209e-06
DICPCG:  Solving for p_rgh, Initial residual = 0.000337446, Final residual = 1.42784e-05, No Iterations 16
time step continuity errors : sum local = 4.02066e-06, global = 1.09716e-07, cumulative = -4.91118e-06
DICPCG:  Solving for p_rgh, Initial residual = 2.49769e-05, Final residual = 9.62112e-08, No Iterations 74
time step continuity errors : sum local = 2.71264e-08, global = -2.12464e-11, cumulative = -4.9112e-06
ExecutionTime = 0.34 s  ClockTime = 1 s

Courant Number mean: 0.0256925 max: 0.214443
Interface Courant Number mean: 0.00103378 max: 0.196956
deltaT = 0.001
Time = 0.039

smoothSolver:  Solving for alpha.water, Initial residual = 0.000635343, Final residual = 2.00535e-09, No Iterations 2
Phase-1 volume fraction = 0.124752  Min(alpha.water) = 0  Max(alpha.water) = 1
MULES: Correcting alpha.water
MULES: Correcting alpha.water
Phase-1 volume fraction = 0.124752  Min(alpha.water) = -1.21823e-09  Max(alpha.water) = 1
DICPCG:  Solving for p_rgh, Initial residual = 0.0212607, Final residual = 0.000388758, No Iterations 1
time step continuity errors : sum local = 0.000109028, global = 1.71901e-09, cumulative = -4.90948e-06
DICPCG:  Solving for p_rgh, Initial residual = 0.000400308, Final residual = 1.95883e-05, No Iterations 9
time step continuity errors : sum local = 5.42872e-06, global = 1.70721e-09, cumulative = -4.90777e-06
DICPCG:  Solving for p_rgh, Initial residual = 2.94937e-05, Final residual = 8.84403e-08, No Iterations 84
time step continuity errors : sum local = 2.45174e-08, global = -1.00075e-09, cumulative = -4.90878e-06
ExecutionTime = 0.35 s  ClockTime = 1 s

Courant Number mean: 0.026369 max: 0.216696
Interface Courant Number mean: 0.00108481 max: 0.204261
deltaT = 0.001
Time = 0.04

smoothSolver:  Solving for alpha.water, Initial residual = 0.000652434, Final residual = 2.39544e-09, No Iterations 2
Phase-1 volume fraction = 0.124752  Min(alpha.water) = 0  Max(alpha.water) = 1
MULES: Correcting alpha.water
MULES: Correcting alpha.water
Phase-1 volume fraction = 0.124752  Min(alpha.water) = -3.39619e-09  Max(alpha.water) = 1
DICPCG:  Solving for p_rgh, Initial residual = 0.0211187, Final residual = 0.000426236, No Iterations 1
time step continuity errors : sum local = 0.000115796, global = -2.73124e-10, cumulative = -4.90905e-06
DICPCG:  Solving for p_rgh, Initial residual = 0.000438956, Final residual = 2.15443e-05, No Iterations 8
time step continuity errors : sum local = 5.78655e-06, global = -1.84271e-10, cumulative = -4.90923e-06
DICPCG:  Solving for p_rgh, Initial residual = 3.39282e-05, Final residual = 9.51609e-08, No Iterations 86
time step continuity errors : sum local = 2.55637e-08, global = -4.87737e-11, cumulative = -4.90928e-06
ExecutionTime = 0.36 s  ClockTime = 1 s

Courant Number mean: 0.0270508 max: 0.22242
Interface Courant Number mean: 0.00109629 max: 0.210156
deltaT = 0.001
Time = 0.041

smoothSolver:  Solving for alpha.water, Initial residual = 0.000668968, Final residual = 2.76425e-09, No Iterations 2
Phase-1 volume fraction = 0.124752  Min(alpha.water) = 0  Max(alpha.water) = 1
MULES: Correcting alpha.water
MULES: Correcting alpha.water
Phase-1 volume fraction = 0.124752  Min(alpha.water) = -5.34806e-09  Max(alpha.water) = 1
DICPCG:  Solving for p_rgh, Initial residual = 0.0209685, Final residual = 0.000476396, No Iterations 1
time step continuity errors : sum local = 0.000125938, global = 2.75164e-09, cumulative = -4.90653e-06
DICPCG:  Solving for p_rgh, Initial residual = 0.000491368, Final residual = 2.29984e-05, No Iterations 7
time step continuity errors : sum local = 6.01324e-06, global = 2.11701e-09, cumulative = -4.90441e-06
DICPCG:  Solving for p_rgh, Initial residual = 3.7164e-05, Final residual = 8.88348e-08, No Iterations 89
time step continuity errors : sum local = 2.32293e-08, global = 3.93288e-10, cumulative = -4.90402e-06
ExecutionTime = 0.37 s  ClockTime = 1 s

Courant Number mean: 0.0277304 max: 0.231965
Interface Courant Number mean: 0.00117211 max: 0.214172
deltaT = 0.001
Time = 0.042

smoothSolver:  Solving for alpha.water, Initial residual = 0.000685925, Final residual = 3.08684e-09, No Iterations 2
Phase-1 volume fraction = 0.124752  Min(alpha.water) = 0  Max(alpha.water) = 1
MULES: Correcting alpha.water
MULES: Correcting alpha.water
Phase-1 volume fraction = 0.124752  Min(alpha.water) = -7.18711e-09  Max(alpha.water) = 1
DICPCG:  Solving for p_rgh, Initial residual = 0.0207559, Final residual = 0.000533231, No Iterations 1
time step continuity errors : sum local = 0.000137422, global = 2.77595e-09, cumulative = -4.90124e-06
DICPCG:  Solving for p_rgh, Initial residual = 0.000549261, Final residual = 2.4559e-05, No Iterations 7
time step continuity errors : sum local = 6.26409e-06, global = 3.197e-09, cumulative = -4.89805e-06
DICPCG:  Solving for p_rgh, Initial residual = 4.07588e-05, Final residual = 9.17438e-08, No Iterations 90
time step continuity errors : sum local = 2.34018e-08, global = 7.98465e-10, cumulative = -4.89725e-06
ExecutionTime = 0.38 s  ClockTime = 1 s

Courant Number mean: 0.0284074 max: 0.239722
Interface Courant Number mean: 0.00116982 max: 0.216342
deltaT = 0.001
Time = 0.043

smoothSolver:  Solving for alpha.water, Initial residual = 0.000702443, Final residual = 3.36731e-09, No Iterations 2
Phase-1 volume fraction = 0.124752  Min(alpha.water) = 0  Max(alpha.water) = 1
MULES: Correcting alpha.water
MULES: Correcting alpha.water
Phase-1 volume fraction = 0.124752  Min(alpha.water) = -6.49775e-09  Max(alpha.water) = 1
DICPCG:  Solving for p_rgh, Initial residual = 0.0204512, Final residual = 0.000597758, No Iterations 1
time step continuity errors : sum local = 0.000150557, global = 2.9334e-09, cumulative = -4.89431e-06
DICPCG:  Solving for p_rgh, Initial residual = 0.000616738, Final residual = 2.72356e-05, No Iterations 7
time step continuity errors : sum local = 6.79709e-06, global = 2.72194e-09, cumulative = -4.89159e-06
DICPCG:  Solving for p_rgh, Initial residual = 4.51159e-05, Final residual = 9.21836e-08, No Iterations 91
time step continuity errors : sum local = 2.30076e-08, global = 1.17256e-09, cumulative = -4.89042e-06
ExecutionTime = 0.4 s  ClockTime = 1 s

Courant Number mean: 0.029081 max: 0.244837
Interface Courant Number mean: 0.00120343 max: 0.214679
deltaT = 0.001
Time = 0.044

smoothSolver:  Solving for alpha.water, Initial residual = 0.000717449, Final residual = 3.62998e-09, No Iterations 2
Phase-1 volume fraction = 0.124752  Min(alpha.water) = 0  Max(alpha.water) = 1
MULES: Correcting alpha.water
MULES: Correcting alpha.water
Phase-1 volume fraction = 0.124752  Min(alpha.water) = -4.35348e-09  Max(alpha.water) = 1
DICPCG:  Solving for p_rgh, Initial residual = 0.0193818, Final residual = 0.000577611, No Iterations 1
time step continuity errors : sum local = 0.00014404, global = 3.1701e-09, cumulative = -4.88725e-06
DICPCG:  Solving for p_rgh, Initial residual = 0.000594922, Final residual = 2.89386e-05, No Iterations 7
time step continuity errors : sum local = 7.15758e-06, global = 2.80728e-09, cumulative = -4.88444e-06
DICPCG:  Solving for p_rgh, Initial residual = 4.54414e-05, Final residual = 9.6207e-08, No Iterations 93
time step continuity errors : sum local = 2.38e-08, global = 5.03949e-10, cumulative = -4.88394e-06
ExecutionTime = 0.4 s  ClockTime = 1 s

Courant Number mean: 0.0297699 max: 0.245667
Interface Courant Number mean: 0.00126311 max: 0.217652
deltaT = 0.001
Time = 0.045

smoothSolver:  Solving for alpha.water, Initial residual = 0.000732363, Final residual = 3.94045e-09, No Iterations 2
Phase-1 volume fraction = 0.124752  Min(alpha.water) = 0  Max(alpha.water) = 1
MULES: Correcting alpha.water
MULES: Correcting alpha.water
Phase-1 volume fraction = 0.124752  Min(alpha.water) = -7.74476e-09  Max(alpha.water) = 1
DICPCG:  Solving for p_rgh, Initial residual = 0.0200186, Final residual = 0.000610576, No Iterations 1
time step continuity errors : sum local = 0.000153442, global = 1.85137e-09, cumulative = -4.88209e-06
DICPCG:  Solving for p_rgh, Initial residual = 0.000632067, Final residual = 2.75008e-05, No Iterations 7
time step continuity errors : sum local = 6.85289e-06, global = 1.10069e-09, cumulative = -4.88099e-06
DICPCG:  Solving for p_rgh, Initial residual = 4.51129e-05, Final residual = 9.79028e-08, No Iterations 93
time step continuity errors : sum local = 2.44005e-08, global = 1.43965e-09, cumulative = -4.87955e-06
ExecutionTime = 0.41 s  ClockTime = 1 s

Courant Number mean: 0.030451 max: 0.244966
Interface Courant Number mean: 0.00127905 max: 0.223893
deltaT = 0.001
Time = 0.046

smoothSolver:  Solving for alpha.water, Initial residual = 0.00074774, Final residual = 4.42132e-09, No Iterations 2
Phase-1 volume fraction = 0.124752  Min(alpha.water) = 0  Max(alpha.water) = 1
MULES: Correcting alpha.water
MULES: Correcting alpha.water
Phase-1 volume fraction = 0.124752  Min(alpha.water) = -1.43172e-08  Max(alpha.water) = 1
DICPCG:  Solving for p_rgh, Initial residual = 0.018777, Final residual = 0.000693183, No Iterations 1
time step continuity errors : sum local = 0.000171912, global = 4.16049e-09, cumulative = -4.87539e-06
DICPCG:  Solving for p_rgh, Initial residual = 0.000718955, Final residual = 3.00969e-05, No Iterations 7
time step continuity errors : sum local = 7.41961e-06, global = 3.92648e-09, cumulative = -4.87146e-06
DICPCG:  Solving for p_rgh, Initial residual = 5.06097e-05, Final residual = 9.66769e-08, No Iterations 96
time step continuity errors : sum local = 2.38377e-08, global = 1.2945e-09, cumulative = -4.87017e-06
ExecutionTime = 0.42 s  ClockTime = 1 s

Courant Number mean: 0.031124 max: 0.245305
Interface Courant Number mean: 0.00128985 max: 0.228711
deltaT = 0.001
Time = 0.047

smoothSolver:  Solving for alpha.water, Initial residual = 0.000762401, Final residual = 4.9126e-09, No Iterations 2
Phase-1 volume fraction = 0.124752  Min(alpha.water) = 0  Max(alpha.water) = 1
MULES: Correcting alpha.water
MULES: Correcting alpha.water
Phase-1 volume fraction = 0.124752  Min(alpha.water) = -3.92024e-09  Max(alpha.water) = 1
DICPCG:  Solving for p_rgh, Initial residual = 0.018202, Final residual = 0.000733884, No Iterations 1
time step continuity errors : sum local = 0.000186025, global = 2.91169e-09, cumulative = -4.86725e-06
DICPCG:  Solving for p_rgh, Initial residual = 0.000761587, Final residual = 3.04911e-05, No Iterations 7
time step continuity errors : sum local = 7.69291e-06, global = 3.05874e-09, cumulative = -4.8642e-06
DICPCG:  Solving for p_rgh, Initial residual = 5.30025e-05, Final residual = 8.67211e-08, No Iterations 98
time step continuity errors : sum local = 2.18819e-08, global = 1.47674e-09, cumulative = -4.86272e-06
ExecutionTime = 0.43 s  ClockTime = 1 s

Courant Number mean: 0.0317842 max: 0.255124
Interface Courant Number mean: 0.00128 max: 0.232198
deltaT = 0.001
Time = 0.048

smoothSolver:  Solving for alpha.water, Initial residual = 0.000778627, Final residual = 5.47281e-09, No Iterations 2
Phase-1 volume fraction = 0.124752  Min(alpha.water) = 0  Max(alpha.water) = 1
MULES: Correcting alpha.water
MULES: Correcting alpha.water
Phase-1 volume fraction = 0.124752  Min(alpha.water) = -5.58651e-10  Max(alpha.water) = 1
DICPCG:  Solving for p_rgh, Initial residual = 0.0202694, Final residual = 0.000602816, No Iterations 1
time step continuity errors : sum local = 0.000170952, global = 3.16374e-09, cumulative = -4.85955e-06
DICPCG:  Solving for p_rgh, Initial residual = 0.000626059, Final residual = 2.69045e-05, No Iterations 7
time step continuity errors : sum local = 7.57302e-06, global = 3.15412e-09, cumulative = -4.8564e-06
DICPCG:  Solving for p_rgh, Initial residual = 4.50746e-05, Final residual = 9.80191e-08, No Iterations 66
time step continuity errors : sum local = 2.75925e-08, global = -5.61429e-09, cumulative = -4.86201e-06
ExecutionTime = 0.44 s  ClockTime = 1 s

Courant Number mean: 0.0324417 max: 0.262996
Interface Courant Number mean: 0.00119943 max: 0.234484
deltaT = 0.001
Time = 0.049

smoothSolver:  Solving for alpha.water, Initial residual = 0.000792991, Final residual = 6.02827e-09, No Iterations 2
Phase-1 volume fraction = 0.124752  Min(alpha.water) = -7.98499e-13  Max(alpha.water) = 1
MULES: Correcting alpha.water
MULES: Correcting alpha.water
Phase-1 volume fraction = 0.124752  Min(alpha.water) = -8.48931e-11  Max(alpha.water) = 1
DICPCG:  Solving for p_rgh, Initial residual = 0.0223683, Final residual = 0.000394338, No Iterations 1
time step continuity errors : sum local = 0.000126883, global = -1.08713e-08, cumulative = -4.87289e-06
DICPCG:  Solving for p_rgh, Initial residual = 0.000412342, Final residual = 1.84612e-05, No Iterations 7
time step continuity errors : sum local = 5.85856e-06, global = -1.05854e-08, cumulative = -4.88347e-06
DICPCG:  Solving for p_rgh, Initial residual = 3.16443e-05, Final residual = 9.50928e-08, No Iterations 59
time step continuity errors : sum local = 3.01768e-08, global = -6.13872e-09, cumulative = -4.88961e-06
ExecutionTime = 0.45 s  ClockTime = 1 s

Courant Number mean: 0.0330991 max: 0.269214
Interface Courant Number mean: 0.00126818 max: 0.234391
deltaT = 0.001
Time = 0.05

smoothSolver:  Solving for alpha.water, Initial residual = 0.000808142, Final residual = 6.61818e-09, No Iterations 2
Phase-1 volume fraction = 0.124752  Min(alpha.water) = -7.28332e-13  Max(alpha.water) = 1
MULES: Correcting alpha.water
MULES: Correcting alpha.water
Phase-1 volume fraction = 0.124752  Min(alpha.water) = -1.65393e-10  Max(alpha.water) = 1
DICPCG:  Solving for p_rgh, Initial residual = 0.0270899, Final residual = 0.000234916, No Iterations 1
time step continuity errors : sum local = 8.61732e-05, global = -4.91782e-09, cumulative = -4.89453e-06
DICPCG:  Solving for p_rgh, Initial residual = 0.000247939, Final residual = 1.14159e-05, No Iterations 7
time step continuity errors : sum local = 4.10341e-06, global = -5.63872e-09, cumulative = -4.90017e-06
DICPCG:  Solving for p_rgh, Initial residual = 2.07311e-05, Final residual = 9.30936e-08, No Iterations 50
time step continuity errors : sum local = 3.34672e-08, global = 1.25318e-10, cumulative = -4.90004e-06
ExecutionTime = 0.45 s  ClockTime = 1 s

Courant Number mean: 0.0337537 max: 0.268827
Interface Courant Number mean: 0.00135977 max: 0.237621
deltaT = 0.001
Time = 0.051

smoothSolver:  Solving for alpha.water, Initial residual = 0.000824093, Final residual = 7.0617e-09, No Iterations 2
Phase-1 volume fraction = 0.124752  Min(alpha.water) = -6.63206e-13  Max(alpha.water) = 1
MULES: Correcting alpha.water
MULES: Correcting alpha.water
Phase-1 volume fraction = 0.124752  Min(alpha.water) = -6.90402e-09  Max(alpha.water) = 1
DICPCG:  Solving for p_rgh, Initial residual = 0.0274482, Final residual = 0.000263355, No Iterations 1
time step continuity errors : sum local = 9.22338e-05, global = 8.28571e-09, cumulative = -4.89176e-06
DICPCG:  Solving for p_rgh, Initial residual = 0.000276384, Final residual = 1.26075e-05, No Iterations 7
time step continuity errors : sum local = 4.32617e-06, global = 8.51808e-09, cumulative = -4.88324e-06
DICPCG:  Solving for p_rgh, Initial residual = 2.32936e-05, Final residual = 8.3608e-08, No Iterations 52
time step continuity errors : sum local = 2.86952e-08, global = 9.36249e-09, cumulative = -4.87388e-06
ExecutionTime = 0.46 s  ClockTime = 1 s

Courant Number mean: 0.0344051 max: 0.267167
Interface Courant Number mean: 0.0014498 max: 0.24098
deltaT = 0.001
Time = 0.052

smoothSolver:  Solving for alpha.water, Initial residual = 0.000839443, Final residual = 7.59354e-09, No Iterations 2
Phase-1 volume fraction = 0.124752  Min(alpha.water) = -6.0288e-13  Max(alpha.water) = 1
MULES: Correcting alpha.water
MULES: Correcting alpha.water
Phase-1 volume fraction = 0.124752  Min(alpha.water) = -1.63112e-08  Max(alpha.water) = 1
DICPCG:  Solving for p_rgh, Initial residual = 0.027554, Final residual = 0.000296758, No Iterations 1
time step continuity errors : sum local = 9.92205e-05, global = 2.01862e-08, cumulative = -4.85369e-06
DICPCG:  Solving for p_rgh, Initial residual = 0.000312362, Final residual = 1.4495e-05, No Iterations 7
time step continuity errors : sum local = 4.74903e-06, global = 1.94934e-08, cumulative = -4.8342e-06
DICPCG:  Solving for p_rgh, Initial residual = 2.68603e-05, Final residual = 8.72243e-08, No Iterations 81
time step continuity errors : sum local = 2.85839e-08, global = -1.1554e-09, cumulative = -4.83535e-06
ExecutionTime = 0.47 s  ClockTime = 1 s

Courant Number mean: 0.0350583 max: 0.267737
Interface Courant Number mean: 0.00152059 max: 0.244293
deltaT = 0.001
Time = 0.053

smoothSolver:  Solving for alpha.water, Initial residual = 0.000856391, Final residual = 8.16384e-09, No Iterations 2
Phase-1 volume fraction = 0.124752  Min(alpha.water) = -5.47087e-13  Max(alpha.water) = 1
MULES: Correcting alpha.water
MULES: Correcting alpha.water
Phase-1 volume fraction = 0.124752  Min(alpha.water) = -1.62044e-08  Max(alpha.water) = 1
DICPCG:  Solving for p_rgh, Initial residual = 0.0274479, Final residual = 0.000344222, No Iterations 1
time step continuity errors : sum local = 0.000109956, global = -9.66712e-09, cumulative = -4.84502e-06
DICPCG:  Solving for p_rgh, Initial residual = 0.000362598, Final residual = 1.68306e-05, No Iterations 7
time step continuity errors : sum local = 5.27201e-06, global = -9.43762e-09, cumulative = -4.85446e-06
DICPCG:  Solving for p_rgh, Initial residual = 3.14205e-05, Final residual = 9.6271e-08, No Iterations 84
time step continuity errors : sum local = 3.01629e-08, global = -4.48507e-10, cumulative = -4.8549e-06
ExecutionTime = 0.48 s  ClockTime = 1 s

Courant Number mean: 0.0357216 max: 0.277578
Interface Courant Number mean: 0.00157417 max: 0.246667
deltaT = 0.001
Time = 0.054

smoothSolver:  Solving for alpha.water, Initial residual = 0.000876459, Final residual = 8.87612e-09, No Iterations 2
Phase-1 volume fraction = 0.124752  Min(alpha.water) = -4.9559e-13  Max(alpha.water) = 1
MULES: Correcting alpha.water
MULES: Correcting alpha.water
Phase-1 volume fraction = 0.124752  Min(alpha.water) = -1.07326e-08  Max(alpha.water) = 1
DICPCG:  Solving for p_rgh, Initial residual = 0.0271023, Final residual = 0.000405312, No Iterations 1
time step continuity errors : sum local = 0.000124143, global = 2.25728e-09, cumulative = -4.85265e-06
DICPCG:  Solving for p_rgh, Initial residual = 0.000425638, Final residual = 1.91207e-05, No Iterations 7
time step continuity errors : sum local = 5.74483e-06, global = 1.91206e-09, cumulative = -4.85073e-06
DICPCG:  Solving for p_rgh, Initial residual = 3.56356e-05, Final residual = 9.66829e-08, No Iterations 81
time step continuity errors : sum local = 2.90541e-08, global = -3.90028e-10, cumulative = -4.85112e-06
ExecutionTime = 0.49 s  ClockTime = 1 s

Courant Number mean: 0.0363809 max: 0.284934
Interface Courant Number mean: 0.00159096 max: 0.248137
deltaT = 0.001
Time = 0.055

smoothSolver:  Solving for alpha.water, Initial residual = 0.000892493, Final residual = 9.63769e-09, No Iterations 2
Phase-1 volume fraction = 0.124752  Min(alpha.water) = -4.48087e-13  Max(alpha.water) = 1
MULES: Correcting alpha.water
MULES: Correcting alpha.water
Phase-1 volume fraction = 0.124752  Min(alpha.water) = -2.7607e-10  Max(alpha.water) = 1
DICPCG:  Solving for p_rgh, Initial residual = 0.0271648, Final residual = 0.000469365, No Iterations 1
time step continuity errors : sum local = 0.000138461, global = 1.60272e-09, cumulative = -4.84952e-06
DICPCG:  Solving for p_rgh, Initial residual = 0.000492789, Final residual = 2.35046e-05, No Iterations 7
time step continuity errors : sum local = 6.80458e-06, global = 2.18709e-09, cumulative = -4.84734e-06
DICPCG:  Solving for p_rgh, Initial residual = 4.28772e-05, Final residual = 8.73875e-08, No Iterations 92
time step continuity errors : sum local = 2.53034e-08, global = -4.32626e-12, cumulative = -4.84734e-06
ExecutionTime = 0.5 s  ClockTime = 1 s

Courant Number mean: 0.0370512 max: 0.28662
Interface Courant Number mean: 0.0016247 max: 0.243257
deltaT = 0.001
Time = 0.056

smoothSolver:  Solving for alpha.water, Initial residual = 0.000906996, Final residual = 3.50279e-11, No Iterations 3
Phase-1 volume fraction = 0.124752  Min(alpha.water) = -4.04338e-13  Max(alpha.water) = 1
MULES: Correcting alpha.water
MULES: Correcting alpha.water
Phase-1 volume fraction = 0.124752  Min(alpha.water) = -5.04663e-10  Max(alpha.water) = 1
DICPCG:  Solving for p_rgh, Initial residual = 0.026599, Final residual = 0.000522607, No Iterations 1
time step continuity errors : sum local = 0.000147897, global = 2.49419e-09, cumulative = -4.84485e-06
DICPCG:  Solving for p_rgh, Initial residual = 0.000547693, Final residual = 2.45103e-05, No Iterations 7
time step continuity errors : sum local = 6.81274e-06, global = 2.28059e-09, cumulative = -4.84256e-06
DICPCG:  Solving for p_rgh, Initial residual = 4.61351e-05, Final residual = 8.66377e-08, No Iterations 92
time step continuity errors : sum local = 2.40852e-08, global = 6.74426e-10, cumulative = -4.84189e-06
ExecutionTime = 0.51 s  ClockTime = 1 s

Courant Number mean: 0.0377181 max: 0.285691
Interface Courant Number mean: 0.00166262 max: 0.251089
deltaT = 0.001
Time = 0.057

smoothSolver:  Solving for alpha.water, Initial residual = 0.000922283, Final residual = 3.80406e-11, No Iterations 3
Phase-1 volume fraction = 0.124752  Min(alpha.water) = -3.63875e-13  Max(alpha.water) = 1
MULES: Correcting alpha.water
MULES: Correcting alpha.water
Phase-1 volume fraction = 0.124752  Min(alpha.water) = -8.49022e-09  Max(alpha.water) = 1
DICPCG:  Solving for p_rgh, Initial residual = 0.0258914, Final residual = 0.00058426, No Iterations 1
time step continuity errors : sum local = 0.000158989, global = 3.325e-09, cumulative = -4.83857e-06
DICPCG:  Solving for p_rgh, Initial residual = 0.000612567, Final residual = 2.7846e-05, No Iterations 7
time step continuity errors : sum local = 7.45653e-06, global = 3.86743e-09, cumulative = -4.8347e-06
DICPCG:  Solving for p_rgh, Initial residual = 5.16476e-05, Final residual = 9.74497e-08, No Iterations 60
time step continuity errors : sum local = 2.60991e-08, global = 4.89134e-09, cumulative = -4.82981e-06
ExecutionTime = 0.52 s  ClockTime = 1 s

Courant Number mean: 0.0383848 max: 0.28373
Interface Courant Number mean: 0.00169065 max: 0.255343
deltaT = 0.001
Time = 0.058

smoothSolver:  Solving for alpha.water, Initial residual = 0.0009377, Final residual = 4.20308e-11, No Iterations 3
Phase-1 volume fraction = 0.124752  Min(alpha.water) = -3.26729e-13  Max(alpha.water) = 1
MULES: Correcting alpha.water
MULES: Correcting alpha.water
Phase-1 volume fraction = 0.124752  Min(alpha.water) = -9.9624e-09  Max(alpha.water) = 1
DICPCG:  Solving for p_rgh, Initial residual = 0.0241037, Final residual = 0.000561851, No Iterations 1
time step continuity errors : sum local = 0.000149049, global = 1.10205e-08, cumulative = -4.81879e-06
DICPCG:  Solving for p_rgh, Initial residual = 0.00058947, Final residual = 2.76333e-05, No Iterations 7
time step continuity errors : sum local = 7.21978e-06, global = 1.11965e-08, cumulative = -4.80759e-06
DICPCG:  Solving for p_rgh, Initial residual = 4.79072e-05, Final residual = 9.7896e-08, No Iterations 91
time step continuity errors : sum local = 2.55852e-08, global = 2.54002e-10, cumulative = -4.80734e-06
ExecutionTime = 0.53 s  ClockTime = 1 s

Courant Number mean: 0.0390429 max: 0.289681
Interface Courant Number mean: 0.00172798 max: 0.257663
deltaT = 0.001
Time = 0.059

smoothSolver:  Solving for alpha.water, Initial residual = 0.000952078, Final residual = 4.63977e-11, No Iterations 3
Phase-1 volume fraction = 0.124752  Min(alpha.water) = -2.92658e-13  Max(alpha.water) = 1
MULES: Correcting alpha.water
MULES: Correcting alpha.water
Phase-1 volume fraction = 0.124752  Min(alpha.water) = -1.6041e-08  Max(alpha.water) = 1
DICPCG:  Solving for p_rgh, Initial residual = 0.0250282, Final residual = 0.000596196, No Iterations 1
time step continuity errors : sum local = 0.000156953, global = -2.37481e-09, cumulative = -4.80971e-06
DICPCG:  Solving for p_rgh, Initial residual = 0.000626501, Final residual = 2.94814e-05, No Iterations 7
time step continuity errors : sum local = 7.6404e-06, global = -1.24559e-09, cumulative = -4.81096e-06
DICPCG:  Solving for p_rgh, Initial residual = 5.12833e-05, Final residual = 9.21417e-08, No Iterations 91
time step continuity errors : sum local = 2.38869e-08, global = -1.2596e-10, cumulative = -4.81108e-06
ExecutionTime = 0.54 s  ClockTime = 1 s

Courant Number mean: 0.0396823 max: 0.298867
Interface Courant Number mean: 0.00174825 max: 0.258742
deltaT = 0.001
Time = 0.06

smoothSolver:  Solving for alpha.water, Initial residual = 0.000967804, Final residual = 5.16056e-11, No Iterations 3
Phase-1 volume fraction = 0.124752  Min(alpha.water) = -2.61307e-13  Max(alpha.water) = 1
MULES: Correcting alpha.water
MULES: Correcting alpha.water
Phase-1 volume fraction = 0.124752  Min(alpha.water) = -1.85994e-08  Max(alpha.water) = 1
DICPCG:  Solving for p_rgh, Initial residual = 0.0231875, Final residual = 0.000683072, No Iterations 1
time step continuity errors : sum local = 0.000174418, global = 1.1868e-09, cumulative = -4.8099e-06
DICPCG:  Solving for p_rgh, Initial residual = 0.00071754, Final residual = 3.40369e-05, No Iterations 7
time step continuity errors : sum local = 8.57492e-06, global = 2.46461e-09, cumulative = -4.80743e-06
DICPCG:  Solving for p_rgh, Initial residual = 5.90188e-05, Final residual = 9.96911e-08, No Iterations 96
time step continuity errors : sum local = 2.51234e-08, global = 1.50133e-09, cumulative = -4.80593e-06
ExecutionTime = 0.55 s  ClockTime = 1 s

Courant Number mean: 0.0403168 max: 0.300818
Interface Courant Number mean: 0.00172537 max: 0.2542
deltaT = 0.001
Time = 0.061

smoothSolver:  Solving for alpha.water, Initial residual = 0.000981656, Final residual = 5.64935e-11, No Iterations 3
Phase-1 volume fraction = 0.124752  Min(alpha.water) = -2.32521e-13  Max(alpha.water) = 1
MULES: Correcting alpha.water
MULES: Correcting alpha.water
Phase-1 volume fraction = 0.124752  Min(alpha.water) = -9.24644e-09  Max(alpha.water) = 1
DICPCG:  Solving for p_rgh, Initial residual = 0.0225992, Final residual = 0.000765034, No Iterations 1
time step continuity errors : sum local = 0.000194226, global = 4.61365e-09, cumulative = -4.80132e-06
DICPCG:  Solving for p_rgh, Initial residual = 0.000805228, Final residual = 3.78912e-05, No Iterations 7
time step continuity errors : sum local = 9.50802e-06, global = 3.99094e-09, cumulative = -4.79732e-06
DICPCG:  Solving for p_rgh, Initial residual = 6.63848e-05, Final residual = 9.32806e-08, No Iterations 98
time step continuity errors : sum local = 2.34135e-08, global = 1.71544e-09, cumulative = -4.79561e-06
ExecutionTime = 0.56 s  ClockTime = 1 s

Courant Number mean: 0.040945 max: 0.300191
Interface Courant Number mean: 0.00177303 max: 0.264477
deltaT = 0.001
Time = 0.062

smoothSolver:  Solving for alpha.water, Initial residual = 0.000995356, Final residual = 6.27714e-11, No Iterations 3
Phase-1 volume fraction = 0.124752  Min(alpha.water) = -2.06244e-13  Max(alpha.water) = 1
MULES: Correcting alpha.water
MULES: Correcting alpha.water
Phase-1 volume fraction = 0.124752  Min(alpha.water) = -1.65047e-08  Max(alpha.water) = 1
DICPCG:  Solving for p_rgh, Initial residual = 0.0231674, Final residual = 0.000735336, No Iterations 1
time step continuity errors : sum local = 0.000194461, global = 3.46449e-09, cumulative = -4.79214e-06
DICPCG:  Solving for p_rgh, Initial residual = 0.000773216, Final residual = 3.73935e-05, No Iterations 7
time step continuity errors : sum local = 9.76488e-06, global = 3.31586e-09, cumulative = -4.78883e-06
DICPCG:  Solving for p_rgh, Initial residual = 6.39556e-05, Final residual = 9.1973e-08, No Iterations 66
time step continuity errors : sum local = 2.40242e-08, global = 2.8089e-09, cumulative = -4.78602e-06
ExecutionTime = 0.57 s  ClockTime = 1 s

Courant Number mean: 0.0415748 max: 0.298929
Interface Courant Number mean: 0.00175063 max: 0.265222
deltaT = 0.001
Time = 0.063

smoothSolver:  Solving for alpha.water, Initial residual = 0.00101004, Final residual = 6.87864e-11, No Iterations 3
Phase-1 volume fraction = 0.124752  Min(alpha.water) = -1.816e-13  Max(alpha.water) = 1
MULES: Correcting alpha.water
MULES: Correcting alpha.water
Phase-1 volume fraction = 0.124752  Min(alpha.water) = -3.10435e-08  Max(alpha.water) = 1
DICPCG:  Solving for p_rgh, Initial residual = 0.024971, Final residual = 0.000669012, No Iterations 1
time step continuity errors : sum local = 0.000188645, global = 5.81448e-09, cumulative = -4.78021e-06
DICPCG:  Solving for p_rgh, Initial residual = 0.000704924, Final residual = 3.24453e-05, No Iterations 7
time step continuity errors : sum local = 9.02221e-06, global = 6.85188e-09, cumulative = -4.77335e-06
DICPCG:  Solving for p_rgh, Initial residual = 5.70435e-05, Final residual = 9.82139e-08, No Iterations 100
time step continuity errors : sum local = 2.73174e-08, global = 8.59191e-10, cumulative = -4.77249e-06
ExecutionTime = 0.58 s  ClockTime = 1 s

Courant Number mean: 0.0422055 max: 0.302727
Interface Courant Number mean: 0.00179901 max: 0.267225
deltaT = 0.001
Time = 0.064

smoothSolver:  Solving for alpha.water, Initial residual = 0.00102645, Final residual = 7.51956e-11, No Iterations 3
Phase-1 volume fraction = 0.124752  Min(alpha.water) = -1.57592e-13  Max(alpha.water) = 1
MULES: Correcting alpha.water
MULES: Correcting alpha.water
Phase-1 volume fraction = 0.124752  Min(alpha.water) = -4.25415e-08  Max(alpha.water) = 1
DICPCG:  Solving for p_rgh, Initial residual = 0.0267764, Final residual = 0.00053679, No Iterations 1
time step continuity errors : sum local = 0.000163745, global = 6.14267e-10, cumulative = -4.77188e-06
DICPCG:  Solving for p_rgh, Initial residual = 0.000568317, Final residual = 2.6228e-05, No Iterations 7
time step continuity errors : sum local = 7.85623e-06, global = -2.15731e-10, cumulative = -4.7721e-06
DICPCG:  Solving for p_rgh, Initial residual = 4.76333e-05, Final residual = 9.83282e-08, No Iterations 97
time step continuity errors : sum local = 2.94558e-08, global = 1.0859e-09, cumulative = -4.77101e-06
ExecutionTime = 0.59 s  ClockTime = 1 s

Courant Number mean: 0.0428466 max: 0.311442
Interface Courant Number mean: 0.00179815 max: 0.267434
deltaT = 0.001
Time = 0.065

smoothSolver:  Solving for alpha.water, Initial residual = 0.00104443, Final residual = 8.31444e-11, No Iterations 3
Phase-1 volume fraction = 0.124752  Min(alpha.water) = -3.49255e-11  Max(alpha.water) = 1
MULES: Correcting alpha.water
MULES: Correcting alpha.water
Phase-1 volume fraction = 0.124752  Min(alpha.water) = -4.56351e-08  Max(alpha.water) = 1
DICPCG:  Solving for p_rgh, Initial residual = 0.0320961, Final residual = 0.000353938, No Iterations 1
time step continuity errors : sum local = 0.000122184, global = 3.43297e-09, cumulative = -4.76758e-06
DICPCG:  Solving for p_rgh, Initial residual = 0.000379546, Final residual = 1.8149e-05, No Iterations 9
time step continuity errors : sum local = 6.10603e-06, global = 2.61653e-09, cumulative = -4.76496e-06
DICPCG:  Solving for p_rgh, Initial residual = 3.78153e-05, Final residual = 8.89945e-08, No Iterations 85
time step continuity errors : sum local = 2.99558e-08, global = -1.44451e-09, cumulative = -4.7664e-06
ExecutionTime = 0.6 s  ClockTime = 1 s

Courant Number mean: 0.0434907 max: 0.312344
Interface Courant Number mean: 0.00186339 max: 0.277193
deltaT = 0.001
Time = 0.066

smoothSolver:  Solving for alpha.water, Initial residual = 0.00106234, Final residual = 9.05576e-11, No Iterations 3
Phase-1 volume fraction = 0.124752  Min(alpha.water) = -3.21747e-11  Max(alpha.water) = 1
MULES: Correcting alpha.water
MULES: Correcting alpha.water
Phase-1 volume fraction = 0.124752  Min(alpha.water) = -4.0887e-08  Max(alpha.water) = 1
DICPCG:  Solving for p_rgh, Initial residual = 0.0319626, Final residual = 0.000400493, No Iterations 1
time step continuity errors : sum local = 0.00013092, global = -2.00926e-09, cumulative = -4.76841e-06
DICPCG:  Solving for p_rgh, Initial residual = 0.000428849, Final residual = 2.02874e-05, No Iterations 11
time step continuity errors : sum local = 6.46367e-06, global = -1.11374e-09, cumulative = -4.76953e-06
DICPCG:  Solving for p_rgh, Initial residual = 3.99625e-05, Final residual = 9.81428e-08, No Iterations 88
time step continuity errors : sum local = 3.12927e-08, global = -7.74989e-10, cumulative = -4.7703e-06
ExecutionTime = 0.61 s  ClockTime = 1 s

Courant Number mean: 0.0441555 max: 0.311107
Interface Courant Number mean: 0.00198118 max: 0.273468
deltaT = 0.001
Time = 0.067

smoothSolver:  Solving for alpha.water, Initial residual = 0.00107818, Final residual = 9.98467e-11, No Iterations 3
Phase-1 volume fraction = 0.124752  Min(alpha.water) = -2.96124e-11  Max(alpha.water) = 1
MULES: Correcting alpha.water
MULES: Correcting alpha.water
Phase-1 volume fraction = 0.124752  Min(alpha.water) = -3.67049e-08  Max(alpha.water) = 1
DICPCG:  Solving for p_rgh, Initial residual = 0.0318505, Final residual = 0.000475603, No Iterations 1
time step continuity errors : sum local = 0.000147682, global = 2.41622e-09, cumulative = -4.76789e-06
DICPCG:  Solving for p_rgh, Initial residual = 0.000507988, Final residual = 2.34387e-05, No Iterations 9
time step continuity errors : sum local = 7.09727e-06, global = 1.17524e-09, cumulative = -4.76671e-06
DICPCG:  Solving for p_rgh, Initial residual = 4.81747e-05, Final residual = 9.97117e-08, No Iterations 81
time step continuity errors : sum local = 3.02072e-08, global = 3.74447e-10, cumulative = -4.76634e-06
ExecutionTime = 0.62 s  ClockTime = 1 s

Courant Number mean: 0.0448001 max: 0.310414
Interface Courant Number mean: 0.00202281 max: 0.272673
deltaT = 0.001
Time = 0.068

smoothSolver:  Solving for alpha.water, Initial residual = 0.00109237, Final residual = 1.10075e-10, No Iterations 3
Phase-1 volume fraction = 0.124752  Min(alpha.water) = -2.72291e-11  Max(alpha.water) = 1
MULES: Correcting alpha.water
MULES: Correcting alpha.water
Phase-1 volume fraction = 0.124752  Min(alpha.water) = -4.21419e-08  Max(alpha.water) = 1
DICPCG:  Solving for p_rgh, Initial residual = 0.0311999, Final residual = 0.000537084, No Iterations 1
time step continuity errors : sum local = 0.000158303, global = 3.26465e-09, cumulative = -4.76307e-06
DICPCG:  Solving for p_rgh, Initial residual = 0.00057247, Final residual = 2.66024e-05, No Iterations 9
time step continuity errors : sum local = 7.65659e-06, global = 3.73241e-09, cumulative = -4.75934e-06
DICPCG:  Solving for p_rgh, Initial residual = 5.48385e-05, Final residual = 8.90511e-08, No Iterations 94
time step continuity errors : sum local = 2.56437e-08, global = 1.54304e-10, cumulative = -4.75919e-06
ExecutionTime = 0.63 s  ClockTime = 1 s

Courant Number mean: 0.0454498 max: 0.315467
Interface Courant Number mean: 0.00206002 max: 0.275642
[...]
DICPCG:  Solving for p_rgh, Initial residual = 0.000148287, Final residual = 9.50726e-08, No Iterations 98
time step continuity errors : sum local = 1.94166e-08, global = 1.84169e-09, cumulative = 0.000204382
ExecutionTime = 15.67 s  ClockTime = 17 s

Courant Number mean: 0.143339 max: 0.742294
Interface Courant Number mean: 0.0194244 max: 0.469376
deltaT = 0.000833333
Time = 0.986667

smoothSolver:  Solving for alpha.water, Initial residual = 0.00418756, Final residual = 1.084e-09, No Iterations 3
Phase-1 volume fraction = 0.122598  Min(alpha.water) = -3.17565e-16  Max(alpha.water) = 1
MULES: Correcting alpha.water
MULES: Correcting alpha.water
Phase-1 volume fraction = 0.122598  Min(alpha.water) = -5.87267e-09  Max(alpha.water) = 1
DICPCG:  Solving for p_rgh, Initial residual = 0.0347966, Final residual = 0.000862447, No Iterations 2
time step continuity errors : sum local = 0.00017582, global = -7.95457e-08, cumulative = 0.000204302
DICPCG:  Solving for p_rgh, Initial residual = 0.00101992, Final residual = 5.08946e-05, No Iterations 10
time step continuity errors : sum local = 1.02972e-05, global = -3.42332e-07, cumulative = 0.00020396
DICPCG:  Solving for p_rgh, Initial residual = 0.000152839, Final residual = 8.28425e-08, No Iterations 117
time step continuity errors : sum local = 1.677e-08, global = -3.85163e-10, cumulative = 0.00020396
ExecutionTime = 15.68 s  ClockTime = 17 s

Courant Number mean: 0.143184 max: 0.741857
Interface Courant Number mean: 0.0192463 max: 0.467281
deltaT = 0.000833333
Time = 0.9875

smoothSolver:  Solving for alpha.water, Initial residual = 0.00416639, Final residual = 1.02277e-09, No Iterations 3
Phase-1 volume fraction = 0.122598  Min(alpha.water) = -3.15349e-16  Max(alpha.water) = 1
MULES: Correcting alpha.water
MULES: Correcting alpha.water
Phase-1 volume fraction = 0.122598  Min(alpha.water) = -7.80473e-10  Max(alpha.water) = 1
DICPCG:  Solving for p_rgh, Initial residual = 0.0352863, Final residual = 0.000863617, No Iterations 2
time step continuity errors : sum local = 0.000178437, global = -9.89931e-08, cumulative = 0.000203861
DICPCG:  Solving for p_rgh, Initial residual = 0.00102124, Final residual = 4.25867e-05, No Iterations 11
time step continuity errors : sum local = 8.72644e-06, global = 2.01907e-09, cumulative = 0.000203863
DICPCG:  Solving for p_rgh, Initial residual = 0.000149914, Final residual = 9.40239e-08, No Iterations 103
time step continuity errors : sum local = 1.92787e-08, global = -1.48258e-09, cumulative = 0.000203861
ExecutionTime = 15.69 s  ClockTime = 17 s

Courant Number mean: 0.143022 max: 0.739384
Interface Courant Number mean: 0.0191585 max: 0.465584
deltaT = 0.000833333
Time = 0.988333

smoothSolver:  Solving for alpha.water, Initial residual = 0.0041475, Final residual = 9.74089e-10, No Iterations 3
Phase-1 volume fraction = 0.122598  Min(alpha.water) = -3.13075e-16  Max(alpha.water) = 1
MULES: Correcting alpha.water
MULES: Correcting alpha.water
Phase-1 volume fraction = 0.122598  Min(alpha.water) = -6.53496e-10  Max(alpha.water) = 1
DICPCG:  Solving for p_rgh, Initial residual = 0.0366136, Final residual = 0.000898949, No Iterations 2
time step continuity errors : sum local = 0.000188642, global = -1.31306e-07, cumulative = 0.00020373
DICPCG:  Solving for p_rgh, Initial residual = 0.00106463, Final residual = 4.86765e-05, No Iterations 11
time step continuity errors : sum local = 1.01224e-05, global = -2.70524e-07, cumulative = 0.000203459
DICPCG:  Solving for p_rgh, Initial residual = 0.000154841, Final residual = 8.58483e-08, No Iterations 118
time step continuity errors : sum local = 1.78651e-08, global = -5.22268e-10, cumulative = 0.000203459
ExecutionTime = 15.7 s  ClockTime = 17 s

Courant Number mean: 0.142836 max: 0.742218
Interface Courant Number mean: 0.0189931 max: 0.423966
deltaT = 0.000833333
Time = 0.989167

smoothSolver:  Solving for alpha.water, Initial residual = 0.00413774, Final residual = 9.38156e-10, No Iterations 3
Phase-1 volume fraction = 0.122598  Min(alpha.water) = -3.10744e-16  Max(alpha.water) = 1
MULES: Correcting alpha.water
MULES: Correcting alpha.water
Phase-1 volume fraction = 0.122598  Min(alpha.water) = -3.4369e-10  Max(alpha.water) = 1
DICPCG:  Solving for p_rgh, Initial residual = 0.036037, Final residual = 0.000872672, No Iterations 2
time step continuity errors : sum local = 0.000181513, global = -1.19806e-07, cumulative = 0.000203339
DICPCG:  Solving for p_rgh, Initial residual = 0.00103106, Final residual = 4.73058e-05, No Iterations 11
time step continuity errors : sum local = 9.75938e-06, global = 2.57197e-07, cumulative = 0.000203596
DICPCG:  Solving for p_rgh, Initial residual = 0.000151032, Final residual = 9.39965e-08, No Iterations 118
time step continuity errors : sum local = 1.93932e-08, global = -1.02214e-10, cumulative = 0.000203596
ExecutionTime = 15.72 s  ClockTime = 17 s

Courant Number mean: 0.142677 max: 0.743101
Interface Courant Number mean: 0.0189571 max: 0.418738
deltaT = 0.000833333
Time = 0.99

smoothSolver:  Solving for alpha.water, Initial residual = 0.00413277, Final residual = 8.99705e-10, No Iterations 3
Phase-1 volume fraction = 0.122598  Min(alpha.water) = -3.08355e-16  Max(alpha.water) = 1
MULES: Correcting alpha.water
MULES: Correcting alpha.water
Phase-1 volume fraction = 0.122598  Min(alpha.water) = -5.36866e-11  Max(alpha.water) = 1
DICPCG:  Solving for p_rgh, Initial residual = 0.0366082, Final residual = 0.000924115, No Iterations 2
time step continuity errors : sum local = 0.000193165, global = -1.56829e-07, cumulative = 0.000203439
DICPCG:  Solving for p_rgh, Initial residual = 0.00108822, Final residual = 5.02294e-05, No Iterations 12
time step continuity errors : sum local = 1.04222e-05, global = -1.57802e-08, cumulative = 0.000203424
DICPCG:  Solving for p_rgh, Initial residual = 0.000163137, Final residual = 8.79174e-08, No Iterations 104
time step continuity errors : sum local = 1.82459e-08, global = -1.27285e-09, cumulative = 0.000203422
ExecutionTime = 15.73 s  ClockTime = 17 s

Courant Number mean: 0.142522 max: 0.741972
Interface Courant Number mean: 0.0188185 max: 0.419718
deltaT = 0.000833333
Time = 0.990833

smoothSolver:  Solving for alpha.water, Initial residual = 0.00412985, Final residual = 8.59153e-10, No Iterations 3
Phase-1 volume fraction = 0.122598  Min(alpha.water) = -3.0591e-16  Max(alpha.water) = 1
MULES: Correcting alpha.water
MULES: Correcting alpha.water
Phase-1 volume fraction = 0.122598  Min(alpha.water) = -9.94485e-11  Max(alpha.water) = 1
DICPCG:  Solving for p_rgh, Initial residual = 0.0366682, Final residual = 0.000906938, No Iterations 2
time step continuity errors : sum local = 0.00018946, global = -1.56723e-07, cumulative = 0.000203266
DICPCG:  Solving for p_rgh, Initial residual = 0.00106935, Final residual = 4.49697e-05, No Iterations 12
time step continuity errors : sum local = 9.32442e-06, global = -1.84338e-07, cumulative = 0.000203081
DICPCG:  Solving for p_rgh, Initial residual = 0.000157965, Final residual = 8.75122e-08, No Iterations 120
time step continuity errors : sum local = 1.81451e-08, global = 5.84307e-10, cumulative = 0.000203082
ExecutionTime = 15.74 s  ClockTime = 17 s

Courant Number mean: 0.142341 max: 0.73893
Interface Courant Number mean: 0.0188849 max: 0.418579
deltaT = 0.000833333
Time = 0.991667

smoothSolver:  Solving for alpha.water, Initial residual = 0.00411803, Final residual = 8.36458e-10, No Iterations 3
Phase-1 volume fraction = 0.122598  Min(alpha.water) = -3.03409e-16  Max(alpha.water) = 1
MULES: Correcting alpha.water
MULES: Correcting alpha.water
Phase-1 volume fraction = 0.122598  Min(alpha.water) = -1.06003e-08  Max(alpha.water) = 1
DICPCG:  Solving for p_rgh, Initial residual = 0.0363556, Final residual = 0.000892525, No Iterations 2
time step continuity errors : sum local = 0.000189984, global = -1.44498e-07, cumulative = 0.000202937
DICPCG:  Solving for p_rgh, Initial residual = 0.00105231, Final residual = 4.89847e-05, No Iterations 11
time step continuity errors : sum local = 1.03464e-05, global = 4.26287e-07, cumulative = 0.000203364
DICPCG:  Solving for p_rgh, Initial residual = 0.000156251, Final residual = 9.54436e-08, No Iterations 113
time step continuity errors : sum local = 2.01656e-08, global = -1.85987e-11, cumulative = 0.000203364
ExecutionTime = 15.75 s  ClockTime = 17 s

Courant Number mean: 0.142145 max: 0.73413
Interface Courant Number mean: 0.0189199 max: 0.416377
deltaT = 0.000833333
Time = 0.9925

smoothSolver:  Solving for alpha.water, Initial residual = 0.00410886, Final residual = 8.24587e-10, No Iterations 3
Phase-1 volume fraction = 0.122598  Min(alpha.water) = -3.00854e-16  Max(alpha.water) = 1
MULES: Correcting alpha.water
MULES: Correcting alpha.water
Phase-1 volume fraction = 0.122598  Min(alpha.water) = -3.98655e-09  Max(alpha.water) = 1
DICPCG:  Solving for p_rgh, Initial residual = 0.0364258, Final residual = 0.000863294, No Iterations 2
time step continuity errors : sum local = 0.000187956, global = -2.00397e-07, cumulative = 0.000203163
DICPCG:  Solving for p_rgh, Initial residual = 0.00101074, Final residual = 4.45421e-05, No Iterations 10
time step continuity errors : sum local = 9.627e-06, global = -2.75794e-07, cumulative = 0.000202887
DICPCG:  Solving for p_rgh, Initial residual = 0.000149956, Final residual = 9.30866e-08, No Iterations 114
time step continuity errors : sum local = 2.01222e-08, global = -4.49885e-10, cumulative = 0.000202887
ExecutionTime = 15.76 s  ClockTime = 17 s

Courant Number mean: 0.141974 max: 0.731793
Interface Courant Number mean: 0.0188385 max: 0.413585
deltaT = 0.000833333
Time = 0.993333

smoothSolver:  Solving for alpha.water, Initial residual = 0.00410274, Final residual = 8.1195e-10, No Iterations 3
Phase-1 volume fraction = 0.122598  Min(alpha.water) = -2.98247e-16  Max(alpha.water) = 1
MULES: Correcting alpha.water
MULES: Correcting alpha.water
Phase-1 volume fraction = 0.122598  Min(alpha.water) = -1.38264e-08  Max(alpha.water) = 1
DICPCG:  Solving for p_rgh, Initial residual = 0.0359971, Final residual = 0.000859017, No Iterations 2
time step continuity errors : sum local = 0.000188278, global = -1.76372e-07, cumulative = 0.000202711
DICPCG:  Solving for p_rgh, Initial residual = 0.00100132, Final residual = 4.346e-05, No Iterations 10
time step continuity errors : sum local = 9.44336e-06, global = 1.58e-07, cumulative = 0.000202869
DICPCG:  Solving for p_rgh, Initial residual = 0.00014522, Final residual = 9.51979e-08, No Iterations 98
time step continuity errors : sum local = 2.06964e-08, global = 4.08967e-10, cumulative = 0.000202869
ExecutionTime = 15.77 s  ClockTime = 17 s

Courant Number mean: 0.14184 max: 0.731239
Interface Courant Number mean: 0.0188416 max: 0.41299
deltaT = 0.000833333
Time = 0.994167

smoothSolver:  Solving for alpha.water, Initial residual = 0.00409154, Final residual = 8.12717e-10, No Iterations 3
Phase-1 volume fraction = 0.122598  Min(alpha.water) = -2.9559e-16  Max(alpha.water) = 1
MULES: Correcting alpha.water
MULES: Correcting alpha.water
Phase-1 volume fraction = 0.122598  Min(alpha.water) = -9.3801e-09  Max(alpha.water) = 1
DICPCG:  Solving for p_rgh, Initial residual = 0.0371342, Final residual = 0.000919211, No Iterations 2
time step continuity errors : sum local = 0.000202155, global = -2.43533e-07, cumulative = 0.000202625
DICPCG:  Solving for p_rgh, Initial residual = 0.00106983, Final residual = 5.27626e-05, No Iterations 12
time step continuity errors : sum local = 1.14832e-05, global = 2.55222e-07, cumulative = 0.000202881
DICPCG:  Solving for p_rgh, Initial residual = 0.000159283, Final residual = 9.41219e-08, No Iterations 115
time step continuity errors : sum local = 2.04992e-08, global = -1.88789e-10, cumulative = 0.00020288
ExecutionTime = 15.78 s  ClockTime = 17 s

Courant Number mean: 0.141708 max: 0.72879
Interface Courant Number mean: 0.0189972 max: 0.412127
deltaT = 0.000833333
Time = 0.995

smoothSolver:  Solving for alpha.water, Initial residual = 0.00408937, Final residual = 8.14592e-10, No Iterations 3
Phase-1 volume fraction = 0.122598  Min(alpha.water) = -2.92884e-16  Max(alpha.water) = 1
MULES: Correcting alpha.water
MULES: Correcting alpha.water
Phase-1 volume fraction = 0.122598  Min(alpha.water) = -6.61775e-09  Max(alpha.water) = 1
DICPCG:  Solving for p_rgh, Initial residual = 0.0376914, Final residual = 0.000915402, No Iterations 2
time step continuity errors : sum local = 0.000197429, global = -2.89425e-07, cumulative = 0.000202591
DICPCG:  Solving for p_rgh, Initial residual = 0.00106366, Final residual = 3.9678e-05, No Iterations 15
time step continuity errors : sum local = 8.48289e-06, global = 1.24336e-07, cumulative = 0.000202715
DICPCG:  Solving for p_rgh, Initial residual = 0.000155773, Final residual = 9.50333e-08, No Iterations 91
time step continuity errors : sum local = 2.03214e-08, global = 3.68544e-09, cumulative = 0.000202719
ExecutionTime = 15.79 s  ClockTime = 17 s

Courant Number mean: 0.141584 max: 0.724584
Interface Courant Number mean: 0.0189235 max: 0.410601
deltaT = 0.000833333
Time = 0.995833

smoothSolver:  Solving for alpha.water, Initial residual = 0.00409126, Final residual = 8.2439e-10, No Iterations 3
Phase-1 volume fraction = 0.122598  Min(alpha.water) = -2.90125e-16  Max(alpha.water) = 1
MULES: Correcting alpha.water
MULES: Correcting alpha.water
Phase-1 volume fraction = 0.122598  Min(alpha.water) = -9.73987e-09  Max(alpha.water) = 1
DICPCG:  Solving for p_rgh, Initial residual = 0.0366472, Final residual = 0.000870353, No Iterations 2
time step continuity errors : sum local = 0.000186018, global = -3.00716e-07, cumulative = 0.000202418
DICPCG:  Solving for p_rgh, Initial residual = 0.00101139, Final residual = 4.3977e-05, No Iterations 15
time step continuity errors : sum local = 9.33314e-06, global = -1.07348e-07, cumulative = 0.000202311
DICPCG:  Solving for p_rgh, Initial residual = 0.000156351, Final residual = 9.40568e-08, No Iterations 101
time step continuity errors : sum local = 1.99578e-08, global = -5.76699e-10, cumulative = 0.00020231
ExecutionTime = 15.8 s  ClockTime = 17 s

Courant Number mean: 0.141464 max: 0.718787
Interface Courant Number mean: 0.0188369 max: 0.408597
deltaT = 0.000833333
Time = 0.996667

smoothSolver:  Solving for alpha.water, Initial residual = 0.00410006, Final residual = 8.39864e-10, No Iterations 3
Phase-1 volume fraction = 0.122598  Min(alpha.water) = -2.87318e-16  Max(alpha.water) = 1
MULES: Correcting alpha.water
MULES: Correcting alpha.water
Phase-1 volume fraction = 0.122598  Min(alpha.water) = -7.49821e-09  Max(alpha.water) = 1
DICPCG:  Solving for p_rgh, Initial residual = 0.0367421, Final residual = 0.000911882, No Iterations 2
time step continuity errors : sum local = 0.000194061, global = -3.49508e-07, cumulative = 0.000201961
DICPCG:  Solving for p_rgh, Initial residual = 0.00106385, Final residual = 4.13049e-05, No Iterations 15
time step continuity errors : sum local = 8.72017e-06, global = -2.53732e-07, cumulative = 0.000201707
DICPCG:  Solving for p_rgh, Initial residual = 0.000160143, Final residual = 9.83511e-08, No Iterations 109
time step continuity errors : sum local = 2.07796e-08, global = -3.27983e-11, cumulative = 0.000201707
ExecutionTime = 15.81 s  ClockTime = 17 s

Courant Number mean: 0.141356 max: 0.711426
Interface Courant Number mean: 0.0186593 max: 0.406132
deltaT = 0.000833333
Time = 0.9975

smoothSolver:  Solving for alpha.water, Initial residual = 0.00410964, Final residual = 8.63031e-10, No Iterations 3
Phase-1 volume fraction = 0.122598  Min(alpha.water) = -2.8446e-16  Max(alpha.water) = 1
MULES: Correcting alpha.water
MULES: Correcting alpha.water
Phase-1 volume fraction = 0.122598  Min(alpha.water) = -1.39895e-08  Max(alpha.water) = 1
DICPCG:  Solving for p_rgh, Initial residual = 0.0367037, Final residual = 0.000929269, No Iterations 2
time step continuity errors : sum local = 0.000196402, global = -3.91736e-07, cumulative = 0.000201315
DICPCG:  Solving for p_rgh, Initial residual = 0.00108021, Final residual = 5.23708e-05, No Iterations 14
time step continuity errors : sum local = 1.0982e-05, global = 2.48558e-07, cumulative = 0.000201564
DICPCG:  Solving for p_rgh, Initial residual = 0.000163218, Final residual = 9.73094e-08, No Iterations 107
time step continuity errors : sum local = 2.04286e-08, global = -1.11559e-09, cumulative = 0.000201563
ExecutionTime = 15.82 s  ClockTime = 17 s

Courant Number mean: 0.141248 max: 0.707855
Interface Courant Number mean: 0.018624 max: 0.404399
deltaT = 0.000833333
Time = 0.998333

smoothSolver:  Solving for alpha.water, Initial residual = 0.00410339, Final residual = 8.82424e-10, No Iterations 3
Phase-1 volume fraction = 0.122598  Min(alpha.water) = -2.81555e-16  Max(alpha.water) = 1
MULES: Correcting alpha.water
MULES: Correcting alpha.water
Phase-1 volume fraction = 0.122598  Min(alpha.water) = -4.96397e-09  Max(alpha.water) = 1
DICPCG:  Solving for p_rgh, Initial residual = 0.0368151, Final residual = 0.000906631, No Iterations 2
time step continuity errors : sum local = 0.000191942, global = -4.95292e-07, cumulative = 0.000201068
DICPCG:  Solving for p_rgh, Initial residual = 0.00104941, Final residual = 4.38794e-05, No Iterations 15
time step continuity errors : sum local = 9.22895e-06, global = 2.08849e-07, cumulative = 0.000201276
DICPCG:  Solving for p_rgh, Initial residual = 0.000155926, Final residual = 9.82664e-08, No Iterations 87
time step continuity errors : sum local = 2.06924e-08, global = -4.82033e-09, cumulative = 0.000201272
ExecutionTime = 15.83 s  ClockTime = 17 s

Courant Number mean: 0.141142 max: 0.705153
Interface Courant Number mean: 0.0186827 max: 0.404017
deltaT = 0.000833333
Time = 0.999167

smoothSolver:  Solving for alpha.water, Initial residual = 0.00408857, Final residual = 8.9879e-10, No Iterations 3
Phase-1 volume fraction = 0.122598  Min(alpha.water) = -2.78603e-16  Max(alpha.water) = 1
MULES: Correcting alpha.water
MULES: Correcting alpha.water
Phase-1 volume fraction = 0.122598  Min(alpha.water) = -5.57625e-09  Max(alpha.water) = 1
DICPCG:  Solving for p_rgh, Initial residual = 0.0362509, Final residual = 0.000872595, No Iterations 2
time step continuity errors : sum local = 0.000183232, global = -5.99216e-07, cumulative = 0.000200672
DICPCG:  Solving for p_rgh, Initial residual = 0.00100748, Final residual = 4.09845e-05, No Iterations 15
time step continuity errors : sum local = 8.55506e-06, global = 1.19071e-07, cumulative = 0.000200791
DICPCG:  Solving for p_rgh, Initial residual = 0.000149199, Final residual = 8.70668e-08, No Iterations 86
time step continuity errors : sum local = 1.81982e-08, global = -2.6823e-09, cumulative = 0.000200789
ExecutionTime = 15.83 s  ClockTime = 17 s

Courant Number mean: 0.141041 max: 0.700869
Interface Courant Number mean: 0.0187958 max: 0.403087
deltaT = 0.000833333
Time = 1

smoothSolver:  Solving for alpha.water, Initial residual = 0.00407435, Final residual = 9.24196e-10, No Iterations 3
Phase-1 volume fraction = 0.122598  Min(alpha.water) = -2.75607e-16  Max(alpha.water) = 1
MULES: Correcting alpha.water
MULES: Correcting alpha.water
Phase-1 volume fraction = 0.122598  Min(alpha.water) = -4.99051e-09  Max(alpha.water) = 1
DICPCG:  Solving for p_rgh, Initial residual = 0.037111, Final residual = 0.000876798, No Iterations 2
time step continuity errors : sum local = 0.000185414, global = -6.9792e-07, cumulative = 0.000200091
DICPCG:  Solving for p_rgh, Initial residual = 0.00101136, Final residual = 4.80685e-05, No Iterations 15
time step continuity errors : sum local = 1.00901e-05, global = -5.46064e-09, cumulative = 0.000200085
DICPCG:  Solving for p_rgh, Initial residual = 0.000153384, Final residual = 9.58896e-08, No Iterations 113
time step continuity errors : sum local = 2.01569e-08, global = -6.61717e-11, cumulative = 0.000200085
ExecutionTime = 15.84 s  ClockTime = 17 s

End

Finalising parallel run
